45
-1296.693847
C          3.35416      -16.15799        3.53067
C          4.50607      -15.18274        3.52271
C          4.64367      -14.41759        4.82773
C          5.76630      -13.41757        4.67583
C          5.49553      -12.50427        3.49394
C          5.29523      -13.34531        2.24140
O          4.24965      -14.27334        2.44931
O          6.51504      -13.98268        1.97323
C          6.72760      -14.48138        0.64829
C          7.52186      -13.48460       -0.18740
O          8.02425      -14.17137       -1.33793
C          7.14840      -15.08558       -1.97731
C          5.69591      -14.89140       -1.59646
C          5.48027      -14.97470       -0.08596
O          5.19376      -16.31085        0.27420
O          5.25263      -13.61327       -2.02149
O          7.22528      -14.86628       -3.36405
C          8.76851      -12.97921        0.51700
O          8.42144      -11.87372        1.34958
O          6.51062      -11.53489        3.36120
O          5.84865      -12.67597        5.88385
O          4.91387      -15.35209        5.85946
O          3.37124      -16.99023        2.36787
H          2.41861      -15.60269        3.50120
H          3.38760      -16.74998        4.44388
H          5.43832      -15.72550        3.33713
H          3.71298      -13.87375        5.02910
H          6.69821      -13.96505        4.50115
H          4.56140      -11.97141        3.68112
H          4.97290      -12.72315        1.40483
H          7.37077      -15.35512        0.78248
H          6.90801      -12.63102       -0.48291
H          7.47208      -16.10168       -1.73414
H          5.11351      -15.69157       -2.05748
H          4.62916      -14.32626        0.11117
H          4.48986      -16.31343        0.94313
H          5.62032      -13.48718       -2.90534
H          8.15823      -14.79657       -3.59004
H          9.46902      -12.66794       -0.25837
H          9.22205      -13.78321        1.10116
H          9.22834      -11.40285        1.57297
H          7.18192      -11.87363        2.74286
H          6.44387      -11.93926        5.70053
H          5.22557      -14.83603        6.61174
H          3.90945      -17.76109        2.56736
