45
-1296.698244
C          7.35130        2.29832       -0.90249
C          5.99004        2.94301       -1.15072
C          5.57686        3.97271       -0.10640
C          5.02376        3.34185        1.17445
C          4.01676        2.23201        0.85508
C          4.65858        1.27373       -0.13482
O          4.95439        1.97148       -1.32569
O          3.70765        0.29291       -0.42597
C          3.96162       -0.52398       -1.56374
C          2.60897       -1.13109       -1.91305
O          2.74012       -1.99431       -3.04904
C          3.64201       -3.05032       -2.86550
C          5.02786       -2.54102       -2.50643
C          4.96870       -1.61852       -1.30029
O          6.26065       -1.05043       -1.08048
O          5.94305       -3.60037       -2.27839
O          3.26910       -3.92175       -1.81739
C          1.58585       -0.06969       -2.30353
O          1.00078        0.58099       -1.19890
O          2.80540        2.75315        0.34980
O          6.13853        2.84294        1.90105
O          4.55936        4.76127       -0.72946
O          7.66087        1.36995       -1.91899
H          7.41001        1.84899        0.08859
H          8.10340        3.08599       -0.94672
H          6.03540        3.45344       -2.11151
H          6.44238        4.58696        0.15667
H          4.50360        4.12097        1.74220
H          3.76699        1.69005        1.76894
H          5.56329        0.82687        0.28244
H          4.30442        0.09179       -2.39805
H          2.22769       -1.68776       -1.05368
H          3.66179       -3.57863       -3.81847
H          5.41366       -1.97445       -3.35360
H          4.65681       -2.18450       -0.41712
H          6.88524       -1.78591       -1.13717
H          5.46973       -4.24236       -1.73450
H          2.45974       -4.37235       -2.07809
H          0.78112       -0.57355       -2.83542
H          2.05534        0.63790       -2.99511
H          1.70341        1.03965       -0.71852
H          3.04634        3.30966       -0.40496
H          5.81850        2.50176        2.74171
H          4.30455        5.45925       -0.11726
H          7.09427        0.59801       -1.77968
