30
-819.14875450
C         -0.46967       -5.18098       -0.94622
C          0.28714       -3.87893       -1.12871
C         -0.48267       -2.86277       -1.96396
C          0.41647       -1.68413       -2.36921
C          1.77179       -1.70891       -1.65177
C          2.41151       -3.08705       -1.89068
O          1.51531       -4.15947       -1.80503
N          1.76530       -1.42337       -0.22443
C          0.79363       -0.89816        0.55215
O         -0.32470       -0.56980        0.15084
C          1.16197       -0.74806        2.00863
O          0.68270       -1.81340       -3.76760
O         -1.68147       -2.47110       -1.32789
O         -0.98094       -5.73157       -2.14666
H          0.21808       -5.91837       -0.53668
H         -1.26608       -5.00600       -0.22119
H          0.48428       -3.48259       -0.12820
H         -0.75748       -3.35250       -2.89680
H         -0.11162       -0.75822       -2.16054
H          2.41701       -0.97307       -2.13833
H          2.82195       -3.12135       -2.89818
H          2.60608       -1.72829        0.24086
H          0.50352       -1.38629        2.59434
H          2.19641       -1.00195        2.22421
H          0.97063        0.28027        2.30426
H          0.95574       -0.95203       -4.09615
H         -1.43550       -1.78609       -0.68485
H         -1.78677       -5.25440       -2.36066
O          3.45261       -3.21588       -0.93831
H          3.82079       -4.09796       -1.05086
