24
-686.52274964
C         -1.32509       -0.28484        2.95537
C          0.08570       -0.22251        2.39586
C          0.33330        1.03596        1.56754
C          1.59662        0.87262        0.74036
C          1.52035       -0.36568       -0.15532
C          0.31770       -1.22043        0.22829
O          0.35627       -1.41782        1.65361
O          0.35102       -2.45663       -0.37775
O          2.69356       -1.17033       -0.09236
O          1.83058        2.01019       -0.06371
O          0.42474        2.18844        2.39827
O         -2.28023       -0.48246        1.92670
H         -1.56618        0.66124        3.43698
H         -1.38090       -1.08189        3.69960
H          0.79376       -0.21127        3.23345
H         -0.51349        1.23676        0.91206
H          2.43190        0.72303        1.44147
H          1.43219       -0.04263       -1.19022
H         -0.62102       -0.74123       -0.04853
H          1.28705       -2.68771       -0.45403
H          2.81245       -1.41317        0.83337
H          1.65317        2.77706        0.49404
H          1.10654        2.01914        3.05854
H         -2.16358       -1.38623        1.61730
