30
-819.15099029
C          4.72629       -2.40009       -4.47679
C          3.64402       -2.15690       -3.44143
C          2.67801       -3.34174       -3.38129
C          1.33781       -3.03878       -2.70706
C          1.54784       -2.56549       -1.21688
C          1.32285       -3.75013       -0.30875
O          2.97621       -0.95501       -3.81792
N          0.65894       -1.51608       -0.81827
C          0.91640       -0.21864       -1.05169
O          1.93860        0.16593       -1.63351
C         -0.11418        0.76041       -0.56191
O          0.55890       -2.14721       -3.46103
O          3.36117       -4.36427       -2.65111
O          4.18273       -2.42511       -5.78506
H          5.48318       -1.61820       -4.38120
H          5.19490       -3.36626       -4.30570
H          4.12102       -2.04330       -2.46462
H          2.46580       -3.66020       -4.40360
H          0.77348       -3.97511       -2.67882
H          2.57558       -2.22381       -1.08796
H          2.03267       -4.57822       -0.43985
H         -0.16022       -1.78925       -0.29852
H         -0.60663        1.19759       -1.42814
H         -0.86185        0.30184        0.07955
H          0.39191        1.55897       -0.02685
H          1.18292       -1.49670       -3.82182
H          3.13114       -5.21323       -3.03730
H          3.71635       -1.58878       -5.89109
O          0.39982       -3.81424        0.47840
H          2.71505       -0.48176       -2.99809
