30
-819.15128376
C         -0.30947       -5.18202       -1.00430
C          0.06909       -3.86293       -0.35300
C         -0.64212       -2.63014       -0.91482
C          0.09184       -1.98121       -2.09114
C          1.59013       -1.84502       -1.79249
C          2.16546       -3.19903       -1.38707
O          1.47971       -3.69763       -0.23866
N          1.86975       -0.87543       -0.75927
C          2.52172        0.32393       -0.90872
O          2.53052        1.14799       -0.00570
C          3.23850        0.55476       -2.21804
O         -0.12270       -2.67353       -3.30105
O         -0.73585       -1.72569        0.18725
O          0.00815       -5.26787       -2.39904
H          0.18829       -5.98252       -0.45900
H         -1.38669       -5.32135       -0.91456
H         -0.27888       -3.94471        0.67930
H         -1.63947       -2.92351       -1.25656
H         -0.31825       -0.97798       -2.23352
H          2.07791       -1.54139       -2.71459
H          2.09780       -3.89934       -2.21869
H          1.32969       -0.95427        0.09292
H          3.79825        1.47861       -2.12546
H          3.91512       -0.26489       -2.45319
H          2.52748        0.65047       -3.03798
H         -0.06741       -3.62859       -3.12587
H         -1.17519       -0.92551       -0.11967
H          0.83108       -5.75386       -2.49111
O          3.50479       -3.11296       -1.05604
H          3.57165       -2.38208       -0.42607
