45
-1296.697778
C         -9.70066       -6.17670       -4.42802
C         -8.30822       -5.99931       -3.86851
C         -7.82721       -7.21360       -3.09499
C         -6.49730       -6.93695       -2.41153
C         -6.58834       -5.68150       -1.56264
C         -7.13882       -4.53194       -2.39745
O         -8.37043       -4.85056       -3.00430
O         -6.13375       -4.23815       -3.35425
C         -6.51680       -3.42838       -4.46073
C         -5.28507       -3.36571       -5.35742
O         -5.59361       -2.64376       -6.54896
C         -5.97380       -1.31407       -6.31829
C         -7.19366       -1.26432       -5.41048
C         -6.95802       -2.02339       -4.11238
O         -8.15675       -1.95728       -3.33821
O         -7.46241        0.10257       -5.14833
O         -4.89769       -0.61653       -5.74187
C         -4.83706       -4.74112       -5.80415
O         -5.89037       -5.49175       -6.39419
O         -5.36101       -5.31379       -0.97305
O         -6.13023       -8.01744       -1.57989
O         -7.71498       -8.35278       -3.94341
O        -10.09967       -5.06221       -5.21302
H        -10.39914       -6.35349       -3.60583
H         -9.71208       -7.04440       -5.08163
H         -7.61297       -5.80862       -4.69205
H         -8.55969       -7.48641       -2.33274
H         -5.74289       -6.77440       -3.19388
H         -7.27933       -5.86895       -0.74069
H         -7.33731       -3.66239       -1.77392
H         -7.32091       -3.91271       -5.02139
H         -4.46699       -2.87721       -4.82184
H         -6.21459       -0.91142       -7.30305
H         -8.03082       -1.73309       -5.93787
H         -6.17999       -1.52269       -3.53376
H         -8.61949       -2.79792       -3.45125
H         -8.11969        0.11795       -4.44225
H         -5.28354        0.16746       -5.32928
H         -4.49827       -5.30963       -4.94295
H         -4.00293       -4.62117       -6.49806
H         -6.18470       -4.99789       -7.16699
H         -4.79477       -5.00741       -1.68996
H         -6.26461       -8.81592       -2.10336
H         -7.13043       -8.10921       -4.67207
H        -10.31243       -4.35101       -4.60391
