45
-1296.691403
C          0.98536        3.76108        2.39871
C          0.22415        2.50064        2.02345
C         -0.62256        2.67186        0.77545
C         -1.20077        1.33053        0.38794
C         -1.56947        0.50757        1.62861
C         -1.75084        1.40353        2.85456
O         -0.65390        2.23380        3.11926
O         -1.87386        0.62197        4.03042
C         -3.16521        0.07815        4.23304
C         -3.81244        0.76200        5.43157
O         -5.09413        0.17351        5.70555
C         -5.04737       -1.20403        5.98002
C         -4.39412       -1.97936        4.84489
C         -3.03041       -1.39778        4.51823
O         -2.48305       -2.03177        3.37028
O         -4.30006       -3.36227        5.13973
O         -4.29616       -1.50326        7.13593
C         -4.07300        2.23111        5.18612
O         -4.90984        2.44276        4.06081
O         -0.54778       -0.44276        1.83203
O         -2.30932        1.60792       -0.46291
O          0.16716        3.22581       -0.27020
O          2.11375        3.97260        1.57474
H          1.34796        3.64581        3.41767
H          0.29741        4.61279        2.37785
H          0.93170        1.67774        1.89171
H         -1.44519        3.35226        1.02383
H         -0.42628        0.76882       -0.13994
H         -2.52943        0.01572        1.43677
H         -2.66041        2.00563        2.72814
H         -3.80086        0.21920        3.35476
H         -3.15287        0.65248        6.29652
H         -6.08705       -1.50590        6.10387
H         -5.02668       -1.89399        3.96155
H         -2.36132       -1.52587        5.37533
H         -2.57037       -2.98185        3.51571
H         -3.97645       -3.41693        6.04753
H         -4.78090       -1.18126        7.90219
H         -3.12895        2.73080        4.98044
H         -4.50744        2.66747        6.08841
H         -5.73500        1.98185        4.24302
H         -0.85957       -1.01280        2.54996
H         -2.57850        0.78446       -0.88039
H         -0.40241        3.29212       -1.04378
H          1.78379        3.98118        0.66925
