45
-1296.69621665
C         -9.57351        1.09989       10.32055
C         -9.80576        0.13972        9.17396
C        -11.20494        0.23453        8.59436
C        -11.35942       -0.82074        7.52570
C        -11.09636       -2.19092        8.11571
C         -9.72466       -2.23452        8.77766
O         -9.58038       -1.17947        9.71512
O         -6.86692       -1.40093       10.45558
C         -6.44975       -0.92247        9.18976
C         -6.34019       -2.00998        8.12980
O         -6.13596       -1.39529        6.85693
C         -5.33524       -0.22327        6.85784
C         -4.36266       -0.16384        8.02292
C         -5.08951       -0.27561        9.35953
O         -5.20550        1.02346        9.91790
O         -3.44538       -1.23986        7.93557
O         -4.55708       -0.23648        5.69042
C         -7.55092       -2.90155        8.00863
O         -8.76683       -2.18522        7.75901
O        -11.21532       -3.20455        7.13361
O        -12.68003       -0.72500        7.01816
O        -11.33842        1.53678        8.05599
O        -10.45189        0.85934       11.40423
H         -9.76781        2.11056        9.97222
H         -8.52766        1.03219       10.63381
H         -9.08811        0.34113        8.37388
H        -11.93866        0.05956        9.38679
H        -10.62833       -0.62176        6.73333
H        -11.85347       -2.39880        8.87140
H         -9.61163       -3.14883        9.36312
H         -7.14170       -0.16260        8.81848
H         -5.49086       -2.65999        8.37214
H         -5.99040        0.65386        6.86811
H         -3.85266        0.80178        7.99120
H         -4.48505       -0.92726        9.99626
H         -5.64170        0.91523       10.76978
H         -3.19510       -1.29572        7.00482
H         -5.14012       -0.47344        4.96206
H         -7.64497       -3.49296        8.92072
H         -7.39548       -3.57400        7.16521
H         -7.83666       -1.38972       10.43807
H        -10.40357       -3.15066        6.61277
H        -12.81219       -1.48537        6.44073
H        -12.15393        1.53493        7.54230
H        -10.31451       -0.05274       11.67754
