40
-1161.24757390
O          6.92985       -1.41896       -0.45174
C          5.71808       -1.86303       -0.04702
O          5.18722       -2.85322       -0.48582
C          5.17813       -0.98933        1.09298
O          5.51579        0.34611        0.91899
C          3.67158       -1.09779        1.27260
C          3.32592       -0.99897        2.75214
H          2.24851       -1.04870        2.88803
O          3.72950        0.22755        3.32815
C          3.93040       -2.21390        3.48980
H          4.07826       -1.89881        4.52634
N          3.03784       -3.35198        3.44727
C          1.95364       -3.40684        4.27486
C          1.17368       -4.69895        4.21751
O          1.62542       -2.46572        4.98533
C          5.25405       -2.61313        2.83810
H          5.08647       -3.34708        2.04676
O          5.87123       -1.44735        2.26390
C          6.28575       -3.14444        3.81318
H          6.41549       -2.39030        4.59711
O          7.52797       -3.37699        3.15562
C          5.93678       -4.45253        4.51208
H          4.99125       -4.33931        5.04204
O          6.92797       -4.71439        5.49563
C          5.86977       -5.66779        3.59523
O          4.71571       -5.58840        2.75024
H          7.24094       -2.04088       -1.12543
H          6.45662        0.38512        0.70652
H          3.32203       -2.05386        0.88465
H          3.20381       -0.29750        0.70378
H          4.62464        0.41719        3.02801
H          3.37599       -4.21243        3.03911
H          1.73311       -5.50600        3.74985
H          0.25841       -4.52895        3.65331
H          0.89454       -4.97942        5.22916
H          7.74410       -2.55697        2.69743
H          7.77565       -4.54090        5.06924
H          5.81499       -6.54821        4.23490
H          6.78124       -5.71228        2.99853
H          4.78455       -6.27505        2.08192
