24
-686.52962802
C         -1.70549        0.43856       -1.53860
C         -1.10882        0.50350       -0.14179
C          0.10182        1.45061       -0.06815
C          1.26214        0.76301        0.60822
C          1.54835       -0.51755       -0.13940
C          0.34936       -1.44896       -0.01053
O         -0.82739       -0.80077        0.39514
O          0.19189       -2.12465       -1.24913
O          2.66941       -1.19811        0.38885
O          2.44168        1.54745        0.54922
O         -0.17617        2.62891        0.69144
O         -0.76654        0.13228       -2.54869
H         -2.10941        1.42320       -1.78007
H         -2.53735       -0.27128       -1.53031
H         -1.86684        0.89547        0.53637
H          0.42083        1.72030       -1.07683
H          1.00025        0.53686        1.64639
H          1.70321       -0.27398       -1.19517
H          0.55580       -2.17033        0.77823
H         -0.42218       -2.85219       -1.10317
H          3.36926       -0.53873        0.45847
H          2.21916        2.40133        0.93549
H         -0.58407        3.27407        0.10842
H         -0.43941       -0.76129       -2.36212
