45
-1296.69216392
C          6.78026        2.83270        1.87981
C          6.39200        1.76937        2.88576
C          6.93036        0.38790        2.52807
C          6.17510       -0.71096        3.29407
C          5.34624       -0.15322        4.43746
C          4.43843        0.98676        3.93906
O          4.97059        1.69973        2.85373
O          2.04640        5.13259        6.14588
C          3.25717        5.40027        5.46352
C          4.11573        4.14724        5.50869
O          5.35576        4.38876        4.82932
C          6.12457        5.41928        5.39344
C          5.35456        6.73199        5.43177
C          4.01841        6.52912        6.12005
O          3.21070        7.69230        6.02918
O          6.09963        7.76344        6.05613
O          6.50988        5.15352        6.72496
C          3.45845        2.98192        4.81490
O          4.24496        1.81965        5.06234
O          6.24827        0.28270        5.43624
O          5.24768       -1.41098        2.47274
O          8.31355        0.26285        2.80350
O          8.20226        2.94663        1.76511
H          6.32280        3.78238        2.15971
H          6.41646        2.54997        0.89370
H          6.74568        2.05060        3.88013
H          6.72934        0.22770        1.46060
H          6.92493       -1.38208        3.71820
H          4.70175       -0.94849        4.81891
H          3.48512        0.59594        3.58197
H          3.06626        5.66714        4.41693
H          4.30743        3.88434        6.55199
H          6.99993        5.50704        4.74844
H          5.17413        7.05538        4.40715
H          4.18809        6.26268        7.16898
H          3.74749        8.42816        6.34443
H          6.48431        7.36801        6.84809
H          7.11528        4.40518        6.71988
H          3.41411        3.18461        3.74520
H          2.45352        2.84204        5.21246
H          1.62633        5.98770        6.29401
H          5.76252        0.95032        5.93774
H          5.73689       -1.79657        1.74091
H          8.73377        1.01006        2.35838
H          8.51616        3.43626        2.53007
