45
-1296.692758
C          2.90445       -1.69000       -2.45804
C          1.95102       -1.11848       -3.49149
C          2.59303       -1.05650       -4.88423
C          1.89638        0.03479       -5.66499
C          2.20903        1.37548       -5.03047
C          2.31013        1.19465       -3.50519
O          1.46934        0.15470       -3.05662
O          1.90762        2.33212       -2.81180
C          2.97547        3.21515       -2.48688
C          3.22456        3.19180       -0.98701
O          4.28806        4.09828       -0.68118
C          4.00287        5.43270       -1.01463
C          3.68153        5.57043       -2.49979
C          2.58877        4.60902       -2.91538
O          2.45110        4.72762       -4.31819
O          3.28737        6.91814       -2.71296
O          2.92796        5.88694       -0.23183
C          3.65679        1.83015       -0.49445
O          4.80869        1.34670       -1.17676
O          1.21853        2.34861       -5.33918
O          2.30715        0.08297       -7.01876
O          2.41084       -2.26674       -5.59710
O          3.38598       -2.92233       -3.00144
H          2.37337       -1.85129       -1.51902
H          3.72653       -0.99107       -2.28340
H          1.07354       -1.75905       -3.57798
H          3.66260       -0.82570       -4.80969
H          0.81636       -0.13206       -5.59305
H          3.18518        1.70643       -5.40072
H          3.35076        0.95560       -3.25539
H          3.89024        2.92465       -3.00990
H          2.31131        3.48630       -0.46380
H          4.91383        5.98276       -0.77426
H          4.58315        5.33569       -3.07297
H          1.65546        4.87812       -2.40961
H          1.85587        4.01833       -4.61943
H          2.89390        6.94592       -3.59314
H          2.55325        6.63577       -0.71461
H          2.85722        1.11655       -0.68367
H          3.83364        1.88374        0.58148
H          5.50145        2.00063       -1.03442
H          1.11360        2.32954       -6.29787
H          2.26558       -0.82423       -7.34409
H          2.84177       -2.95209       -5.07141
H          4.05512       -3.27494       -2.41008
