30
-819.15481500
C         -0.67846        0.77297       -4.44489
C         -0.34289       -0.38555       -3.52596
C          1.16032       -0.70202       -3.59250
C          1.61923       -1.99814       -2.90189
C          1.68975       -1.93325       -1.36805
C          2.23437       -3.26486       -0.90224
O         -1.15664       -1.50762       -3.88268
N          0.44238       -1.70004       -0.68681
C          0.10082       -0.47435       -0.23164
O          0.70711        0.54641       -0.57081
C         -1.10784       -0.41363        0.66217
O          0.89316       -3.13882       -3.30852
O          1.90442        0.40100       -3.11434
O         -0.56844        0.25539       -5.77357
H         -1.69978        1.10337       -4.24745
H          0.01936        1.59125       -4.27431
H         -0.61335       -0.10750       -2.51200
H          1.41735       -0.81795       -4.64667
H          2.65483       -2.14175       -3.22508
H          2.40565       -1.15369       -1.08985
H          3.18428       -3.56872       -1.36904
H          0.03358       -2.51474       -0.25160
H         -1.92772        0.03534        0.10381
H         -1.41785       -1.39127        1.02116
H         -0.88386        0.23615        1.50346
H         -0.01565       -2.83504       -3.46999
H          1.59667        0.57543       -2.20500
H         -0.85559        0.93192       -6.39058
O          1.67432       -3.96815       -0.08950
H         -1.21753       -1.47270       -4.84821
