45
-1296.688012
C         -6.66866        0.25674       -5.20699
C         -6.94457       -0.42191       -6.53349
C         -6.90793       -1.94479       -6.43493
C         -6.95842       -2.54373       -7.82297
C         -5.84476       -1.97532       -8.66864
C         -5.94228       -0.46014       -8.69644
O         -5.89966        0.05714       -7.38368
O         -7.13190       -0.09595       -9.35894
C         -7.11986        1.25876       -9.81115
C         -8.55618        1.69733      -10.04728
O         -8.53446        3.10183      -10.30938
C         -7.63874        3.54705      -11.30607
C         -6.91691        2.42889      -12.04249
C         -6.28090        1.43236      -11.07317
O         -4.99037        1.87643      -10.65730
O         -7.80678        1.71889      -12.87843
O         -8.35977        4.24977      -12.29355
C         -9.42439        1.50407       -8.81649
O         -9.83985        0.15964       -8.67059
O         -5.86980       -2.45973       -9.99286
O         -6.77572       -3.95173       -7.79580
O         -8.01962       -2.47645       -5.73684
O         -7.66227       -0.17797       -4.27779
H         -6.70426        1.33813       -5.34568
H         -5.66704       -0.02402       -4.87402
H         -7.92734       -0.11783       -6.90392
H         -5.96452       -2.24458       -5.96061
H         -7.92518       -2.30024       -8.27402
H         -4.89305       -2.21840       -8.18369
H         -5.08304       -0.02337       -9.20190
H         -6.70676        1.90411       -9.02865
H         -8.99586        1.14771      -10.88062
H         -6.91346        4.20862      -10.82580
H         -6.11858        2.89474      -12.63067
H         -6.23138        0.46733      -11.58349
H         -4.40635        1.84507      -11.42180
H         -8.40078        2.38317      -13.25189
H         -8.99445        4.80741      -11.83196
H        -10.32208        2.10819       -8.92898
H         -8.88389        1.86175       -7.93198
H         -9.04755       -0.37453       -8.80421
H         -5.99897       -3.41257       -9.92419
H         -7.44950       -4.30251       -7.20266
H         -8.11879       -1.95319       -4.93025
H         -7.47477        0.22031       -3.42452
