40
-1161.24609154
O          1.10745        2.07287        2.62365
C         -0.02764        1.48017        2.18917
O         -1.05133        1.45736        2.82940
C          0.20649        0.85283        0.79638
O          1.21761       -0.09500        0.90725
C         -1.03796        0.16505        0.25146
C         -1.73060        0.99236       -0.82402
H         -2.77888        0.68861       -0.88814
O         -1.06702        0.71676       -2.04869
C         -1.69984        2.48410       -0.49538
H         -2.06492        3.04525       -1.35595
N         -2.61985        2.75150        0.59181
C         -3.00819        4.04174        0.82304
C         -3.86416        4.24954        2.04658
O         -2.70747        4.95178        0.06023
C         -0.26736        2.96680       -0.18233
H         -0.29358        3.53276        0.75429
O          0.66487        1.87920       -0.05901
C          0.31149        3.86638       -1.25742
H         -0.31303        4.75980       -1.29819
O          0.23788        3.25908       -2.54018
C          1.76474        4.23856       -0.94668
H          2.40499        3.40660       -1.25075
O          1.97164        4.53621        0.43391
C          2.18025        5.47893       -1.70392
O          3.55055        5.77225       -1.50521
H          0.91989        2.42011        3.50892
H          2.00133        0.35717        1.24446
H         -1.71960       -0.06299        1.06796
H         -0.72068       -0.77272       -0.19912
H         -1.36400        1.36804       -2.69425
H         -2.64862        2.10887        1.36837
H         -3.82170        3.41061        2.73725
H         -4.89501        4.39223        1.72766
H         -3.54032        5.15743        2.54709
H          0.63045        2.38132       -2.44211
H          1.98434        3.69779        0.90833
H          1.54654        6.31007       -1.37706
H          2.03083        5.32405       -2.76927
H          3.67623        5.77584       -0.55074
