24
-686.52204994
C         -0.43837        1.13783       -2.54183
C         -0.59386        1.12652       -1.02542
C          0.54599        1.85138       -0.30233
C          1.32312        0.87459        0.54876
C          1.63073       -0.34100       -0.30376
C          0.31222       -1.07616       -0.57665
O         -0.80334       -0.20652       -0.55258
O          0.14574       -1.98161        0.48226
O          2.58931       -1.18200        0.30975
O          2.50975        1.51988        0.97389
O         -0.02107        2.90055        0.46921
O         -0.32815        2.45565       -3.04787
H         -1.27899        0.59722       -2.98340
H          0.47968        0.63189       -2.83880
H         -1.51455        1.64946       -0.76499
H          1.23482        2.26631       -1.04405
H          0.71310        0.57513        1.40635
H          2.07678       -0.00749       -1.24160
H          0.33837       -1.61543       -1.52835
H         -0.74458       -2.34110        0.42012
H          2.08921       -1.78952        0.86994
H          3.10651        0.81659        1.25739
H          0.70854        3.31760        0.94078
H         -1.10948        2.94581       -2.77582
