24
-686.52593543
C         -1.04002       -0.11577        3.20652
C          0.05642       -0.32227        2.18478
C          0.89955        0.92593        1.97525
C          1.64083        0.89679        0.62999
C          1.66002       -0.49346        0.01425
C          0.23220       -1.04195       -0.08540
O         -0.61194       -0.63268        0.95682
O          0.36838       -2.44889       -0.11406
O          2.49236       -1.29860        0.82019
O          0.97496        1.81047       -0.23870
O          1.78052        0.99005        3.08851
O         -1.94962        0.89731        2.81385
H         -0.59405        0.20043        4.14620
H         -1.55608       -1.06650        3.36396
H          0.70286       -1.14328        2.49831
H          0.23212        1.78897        1.94800
H          2.67374        1.19976        0.81545
H          2.05713       -0.43480       -1.00610
H         -0.24624       -0.68646       -0.99702
H         -0.51843       -2.82199       -0.10324
H          2.21524       -2.21014        0.66422
H          1.49932        1.89086       -1.04106
H          2.05116        1.90510        3.19827
H         -2.22153        0.67904        1.91624
