40
-1161.24852544
O          9.82000        7.32577       -2.54831
C         10.89774        8.05034       -2.92320
O         10.95563        9.25146       -2.83112
C         12.03054        7.21190       -3.53834
O         13.20369        7.92441       -3.40706
C         12.23005        5.81214       -2.95452
C         12.11781        4.75333       -4.04439
H         12.13699        3.76363       -3.59038
O         13.20958        4.78730       -4.94353
C         10.77935        4.89880       -4.77911
H         10.76938        4.17442       -5.58925
N          9.68390        4.56091       -3.89304
C          9.00005        3.39053       -3.98079
C          7.89921        3.20689       -2.96730
O          9.23732        2.53858       -4.83478
C         10.63556        6.32101       -5.35263
H          9.70254        6.78318       -5.02277
O         11.74747        7.14906       -4.94620
C         10.68175        6.34185       -6.88253
H         11.43132        5.62371       -7.22452
O         10.98873        7.65027       -7.35671
C          9.33369        6.03286       -7.53463
H          9.52122        6.01565       -8.61266
O          8.39873        7.04893       -7.20672
C          8.68439        4.72608       -7.13285
O          9.54669        3.64798       -7.44565
H          9.15762        7.96653       -2.24375
H         12.97527        8.86107       -3.49871
H         11.50785        5.61091       -2.16598
H         13.22535        5.77965       -2.51777
H         13.27683        5.69240       -5.26852
H          9.40942        5.22882       -3.19150
H          7.86969        3.99594       -2.21969
H          8.03805        2.24681       -2.47723
H          6.94800        3.17480       -3.49461
H         11.65714        8.01018       -6.76271
H          8.85637        7.87911       -7.38792
H          7.73950        4.64497       -7.67423
H          8.44457        4.76152       -6.06887
H          9.44656        2.99757       -6.73571
