45
-1296.694757
C          3.80377        2.08481       -4.58328
C          2.78134        1.94098       -3.47710
C          3.30127        1.18475       -2.26455
C          2.24077        1.18406       -1.17781
C          0.83108        1.16935       -1.75904
C          0.81235        0.56078       -3.14948
O          1.71637        1.16434       -4.04467
O         -0.49825        0.74625       -3.63790
C         -0.72660        0.17665       -4.93134
C         -1.21193        1.25898       -5.88957
O         -1.55304        0.66701       -7.14830
C         -2.56049       -0.30290       -7.09033
C         -2.16608       -1.43412       -6.14824
C         -1.80543       -0.87399       -4.79172
O         -1.39927       -1.98069       -3.99411
O         -3.28104       -2.30718       -6.06254
O         -3.75916        0.29715       -6.66659
C         -0.16042        2.29524       -6.21840
O          0.95129        1.71494       -6.88606
O          0.36576        2.50622       -1.80467
O          2.36861        0.05932       -0.32101
O          4.46779        1.74814       -1.67792
O          3.30149        2.78411       -5.69575
H          4.15982        1.08458       -4.85924
H          4.64703        2.66514       -4.20963
H          2.41376        2.92761       -3.18455
H          3.48322        0.14795       -2.57032
H          2.34040        2.11991       -0.62172
H          0.20714        0.55314       -1.10661
H          1.03085       -0.51226       -3.10022
H          0.19448       -0.26346       -5.31725
H         -2.08557        1.75356       -5.45597
H         -2.65493       -0.67636       -8.11090
H         -1.29614       -1.95028       -6.56421
H         -2.69090       -0.40072       -4.35775
H         -1.33327       -1.66854       -3.08610
H         -3.10522       -2.89915       -5.32197
H         -4.32124       -0.42749       -6.36179
H          0.22173        2.73903       -5.30378
H         -0.61628        3.07327       -6.83330
H          0.61304        1.30664       -7.68956
H         -0.41574        2.49627       -2.37058
H          3.26224        0.08523        0.03662
H          5.21376        1.57842       -2.25981
H          2.57936        2.26829       -6.08666
