45
-1296.697041
C         -3.78370        5.44733        4.72120
C         -3.35274        5.96231        3.37078
C         -4.16838        5.46568        2.19353
C         -3.59612        6.09994        0.94299
C         -2.11930        5.77282        0.79366
C         -1.37726        6.11524        2.07769
O         -1.99264        5.53902        3.20689
O         -1.36969        7.51381        2.13915
C         -0.50155        8.03546        3.14456
C         -1.25815        9.12070        3.89566
O         -1.35521       10.33228        3.14757
C         -0.11865       10.82838        2.68497
C          0.57852        9.84981        1.75394
C          0.77863        8.52187        2.47280
O          1.74850        8.66225        3.50485
O         -0.17285        9.62744        0.58092
O         -0.39988       11.96788        1.92421
C         -0.74330        9.33504        5.31864
O         -0.90945        8.15535        6.08632
O         -1.55635        6.44880       -0.31622
O         -4.34463        5.61555       -0.16201
O         -5.51693        5.84795        2.39394
O         -2.97015        6.01366        5.74420
H         -3.72715        4.35594        4.73757
H         -4.80747        5.75053        4.91840
H         -3.39988        7.05351        3.38761
H         -4.07586        4.37577        2.11991
H         -3.71024        7.18581        1.03333
H         -2.01662        4.70470        0.60216
H         -0.35986        5.71610        2.06914
H         -0.24399        7.25531        3.86262
H         -2.29033        8.77918        3.97883
H          0.53505       11.06429        3.53109
H          1.56311       10.26957        1.51120
H          1.07816        7.76893        1.73818
H          2.59596        8.85814        3.09368
H         -0.58314       10.47510        0.36720
H         -1.03277       12.49303        2.42570
H         -1.28384       10.18278        5.74789
H          0.32082        9.55304        5.33190
H         -1.84240        7.90426        6.08025
H         -1.36009        7.34865       -0.01310
H         -3.92144        5.96522       -0.95436
H         -5.95329        5.74944        1.53984
H         -2.06563        5.75004        5.53969
