24
-686.52099097
C          1.24033        1.44815        3.78623
C          2.35960        1.22884        2.77447
C          3.69389        1.77099        3.28593
C          4.89298        1.50083        2.36627
C          5.06105        2.39202        1.13622
C          4.98295        3.86240        1.46620
O          4.32978        4.61766        0.77093
O          4.14713        2.08612        0.10372
O          6.09181        1.72135        3.09012
O          4.05802        1.12365        4.50235
O          1.90837        1.89762        1.62081
O          1.43316        0.73816        5.01457
H          1.19701        2.50331        4.04824
H          0.29608        1.17595        3.31631
H          2.47884        0.14951        2.60256
H          3.58574        2.85153        3.44851
H          4.82899        0.46038        2.02576
H          6.08856        2.20879        0.80017
H          5.56269        4.21082        2.32954
H          3.91075        2.95262       -0.27169
H          5.90944        1.40082        3.98399
H          3.24045        0.96421        5.00250
H          2.61318        1.84964        0.95151
H          1.22491       -0.18717        4.85789
