24
-686.52836096
C         -1.85487        0.61763        0.43398
C         -0.71902       -0.00688        1.24719
C          0.45595        0.92145        1.50194
C          1.44407        0.97392        0.33397
C          1.83117       -0.44288       -0.08738
C          0.58042       -1.27064       -0.35993
O         -0.31958       -1.27818        0.71416
O          0.00394       -0.75307       -1.55303
O          2.62920       -1.08395        0.88356
O          0.91101        1.73654       -0.73756
O          1.10317        0.42303        2.68095
O         -2.46419        1.66984        1.16943
H         -2.60831       -0.15518        0.28774
H         -1.52224        0.96151       -0.54024
H         -1.13721       -0.24611        2.22405
H          0.06716        1.92566        1.68087
H          2.35108        1.48042        0.67118
H          2.41514       -0.39503       -1.00535
H          0.85678       -2.31594       -0.48787
H         -0.77835       -1.27878       -1.75046
H          2.16720       -0.97656        1.72705
H          0.48649        1.11312       -1.34124
H          1.79947        1.04421        2.91910
H         -2.06099        2.49406        0.88911
