45
-1296.691617
C         -4.25822        3.38881        2.97741
C         -4.01746        2.33889        1.90101
C         -2.59713        1.78548        1.88580
C         -1.58699        2.74144        1.21496
C         -2.21114        3.69941        0.20411
C         -3.50524        3.13253       -0.35151
O         -4.46037        2.83939        0.62552
O         -3.10024        2.00216       -1.10928
C         -4.02409        1.45457       -2.04258
C         -4.54904        2.45727       -3.06887
O         -5.31845        1.74326       -4.05137
C         -6.43644        1.06751       -3.52907
C         -6.03038        0.07666       -2.44866
C         -5.19962        0.76652       -1.38016
O         -4.68350       -0.18792       -0.46528
O         -7.15519       -0.56990       -1.87899
O         -7.36667        1.94170       -2.92963
C         -3.44484        3.14940       -3.83919
O         -2.58570        2.22634       -4.48261
O         -1.33005        4.03418       -0.85045
O         -0.93469        3.56994        2.18838
O         -2.52669        0.48078        1.35234
O         -3.47518        4.55845        2.87290
H         -4.12691        2.89964        3.94979
H         -5.29495        3.71125        2.90169
H         -4.67699        1.49784        2.13119
H         -2.28516        1.69004        2.92934
H         -0.85806        2.11139        0.70414
H         -2.45361        4.62565        0.71800
H         -3.97767        3.87024       -0.99949
H         -3.44052        0.70524       -2.57849
H         -5.18868        3.20554       -2.59489
H         -6.87961        0.55198       -4.38059
H         -5.42415       -0.70410       -2.90749
H         -5.81456        1.50180       -0.85584
H         -5.42670       -0.73105       -0.17667
H         -7.79971        0.12708       -1.70459
H         -7.79175        2.45352       -3.62475
H         -2.82876        3.73059       -3.15686
H         -3.90331        3.83291       -4.55836
H         -3.13679        1.70876       -5.07817
H         -1.22710        3.22871       -1.37185
H         -0.31283        3.02022        2.67535
H         -3.12618        0.41349        0.59420
H         -2.54058        4.31349        2.94397
