45
-1296.69935344
C          9.95017       -1.60385       -3.45932
C         10.02678       -0.09306       -3.58122
C         11.06356        0.51318       -2.63676
C         10.66709        1.94199       -2.34187
C          9.35653        1.97267       -1.57127
C          8.46604        0.81381       -2.04522
O          8.72775        0.48884       -3.39785
O          4.03615        1.42721       -3.65566
C          4.40738        0.09617       -3.95970
C          5.87856       -0.06115       -3.61909
O          6.26815       -1.42113       -3.88570
C          6.12722       -1.81071       -5.24745
C          4.69514       -1.62179       -5.72356
C          4.22265       -0.21171       -5.42645
O          2.84312       -0.05972       -5.72416
O          4.56596       -1.92021       -7.10271
O          6.94817       -1.06599       -6.10279
C          6.16615        0.21683       -2.14500
O          7.14961        1.22631       -1.92551
O          8.77006        3.23894       -1.78530
O         11.74307        2.52605       -1.61926
O         12.31918        0.43603       -3.28086
O          8.92360       -2.13682       -4.27867
H          9.78971       -1.88957       -2.41476
H         10.89644       -2.03434       -3.78156
H         10.31579        0.17540       -4.59670
H         11.09619       -0.04265       -1.68953
H         10.50882        2.46583       -3.28772
H          9.57382        1.82266       -0.50811
H          8.64154       -0.07514       -1.42082
H          3.81814       -0.61786       -3.37049
H          6.46438        0.62512       -4.22937
H          6.40505       -2.86477       -5.25468
H          4.05449       -2.32281       -5.18932
H          4.82028        0.50108       -6.00479
H          2.72068       -0.37401       -6.62722
H          5.34292       -1.53308       -7.52601
H          7.86428       -1.29482       -5.87947
H          6.47260       -0.71552       -1.66241
H          5.27015        0.59505       -1.66089
H          3.18789        1.57590       -4.08925
H          7.81621        3.11918       -1.69771
H         11.56430        3.46842       -1.54341
H         12.89650        1.04203       -2.80032
H          8.08682       -1.83134       -3.88817
