40
-1161.24164957
O          9.40392       -2.76124       -1.09323
C          9.04439       -1.76917       -1.93112
O          8.78309       -0.64791       -1.57971
C          9.06135       -2.21690       -3.39732
O         10.22839       -1.59302       -3.91285
C          9.12711       -3.71679       -3.60708
C          8.91733       -4.02122       -5.07954
H          8.96812       -5.09889       -5.24284
O          9.93958       -3.41543       -5.87041
C          7.52578       -3.55131       -5.51495
H          7.51973       -3.56033       -6.60670
N          6.49558       -4.50372       -5.12151
C          5.85234       -4.56191       -3.91788
C          4.83057       -5.66869       -3.79800
O          6.07119       -3.77973       -3.00345
C          7.21221       -2.10735       -5.07078
H          6.15587       -2.07307       -4.79942
O          7.89448       -1.63105       -3.91631
C          7.40151       -1.14109       -6.24100
H          6.67533       -1.46789       -6.99785
O          8.69060       -1.24856       -6.83649
C          7.06329        0.31486       -5.90669
H          6.06839        0.32656       -5.44513
O          7.06773        1.09424       -7.09912
C          8.02563        1.01491       -4.95454
O          9.39470        0.74044       -5.26828
H          9.39918       -2.36953       -0.20715
H         10.50293       -2.15127       -4.66505
H          8.35635       -4.19936       -3.01200
H         10.10215       -4.07394       -3.28298
H          9.53233       -2.67949       -6.38028
H          6.27782       -5.22440       -5.78753
H          4.72284       -6.26481       -4.70078
H          3.87212       -5.22242       -3.54460
H          5.12134       -6.31477       -2.97299
H          9.18723       -0.47529       -6.48140
H          6.63340        0.59335       -7.79554
H          7.81165        0.73361       -3.92772
H          7.86690        2.08468       -5.08008
H          9.71476        0.09473       -4.61502
