45
-1296.69534474
C          3.92658       -5.05605        1.11891
C          3.31746       -3.67418        1.13040
C          1.95510       -3.61319        0.46705
C          1.48439       -2.17702        0.46510
C          2.49986       -1.28684       -0.22748
C          3.87766       -1.48235        0.38961
O          4.23817       -2.84197        0.40746
O          4.95782        2.74690        3.07686
C          5.27218        1.57725        2.34462
C          5.13586        0.32778        3.19876
O          6.18435        0.18205        4.17716
C          7.39297        0.83752        3.93542
C          7.73486        0.91192        2.46097
C          6.65500        1.66721        1.68349
O          6.54324        1.15900        0.35709
O          9.02506        1.45375        2.24772
O          7.38262        2.18701        4.40470
C          5.06906       -0.93627        2.35540
O          3.81396       -0.92311        1.67900
O          2.09051        0.07039       -0.19053
O          0.23031       -2.14128       -0.19922
O          1.07235       -4.44602        1.19632
O          5.19872       -5.05863        1.74388
H          3.99201       -5.40616        0.08417
H          3.28981       -5.73533        1.67791
H          3.23448       -3.32313        2.16240
H          2.04690       -3.95446       -0.57105
H          1.37412       -1.85270        1.50583
H          2.55257       -1.56589       -1.27938
H          4.65464       -0.98176       -0.19241
H          4.53964        1.51299        1.54170
H          4.21092        0.40746        3.76904
H          8.15164        0.27589        4.47845
H          7.77900       -0.10975        2.08792
H          6.92052        2.72694        1.66323
H          7.40573        1.26182       -0.06007
H          9.04487        2.29843        2.71223
H          7.37528        2.16054        5.36735
H          5.14301       -1.81183        3.00186
H          5.87630       -0.97121        1.62252
H          5.65583        2.84449        3.73827
H          2.28588        0.37957        0.70268
H         -0.00340       -1.21131       -0.29729
H          0.18411       -4.22813        0.89166
H          5.71585       -4.38734        1.28769
