40
-1161.25195515
O          0.01534        4.68582        4.10900
C          1.25386        4.38832        4.55055
O          1.48374        3.72653        5.52994
C          2.30335        4.97538        3.59989
O          2.27465        4.19512        2.42570
C          2.01264        6.43289        3.23345
C          3.30375        7.18149        2.89163
H          3.69445        7.66589        3.78916
O          3.09139        8.24752        1.98053
C          4.35258        6.18974        2.40129
H          3.94515        5.61650        1.56933
N          5.53487        6.87398        1.92799
C          6.27904        6.36462        0.91504
C          7.36879        7.25397        0.37985
O          6.09138        5.23289        0.46409
C          4.69034        5.26893        3.57781
H          5.28747        5.84444        4.28743
O          3.51282        4.86918        4.29899
C          5.48400        4.02442        3.18993
H          6.49837        4.34382        2.93078
O          4.89348        3.34235        2.08993
C          5.52946        3.01530        4.33750
H          4.61249        2.42418        4.29705
O          5.65776        3.64187        5.60981
C          6.71929        2.09220        4.20116
O          6.71757        1.09677        5.20480
H         -0.59816        4.23518        4.70755
H          3.08832        3.65217        2.38763
H          1.49681        6.94012        4.04628
H          1.34769        6.42634        2.37040
H          2.64958        7.88506        1.20525
H          5.62444        7.85584        2.13388
H          7.40014        8.22744        0.86188
H          7.21402        7.38114       -0.68879
H          8.32365        6.75234        0.51774
H          5.19726        3.82822        1.29971
H          4.77304        3.93385        5.85933
H          7.63194        2.69727        4.24839
H          6.68386        1.58762        3.23882
H          6.57892        1.56928        6.03261
