45
-1296.70053761
C         -5.49539        6.38147        5.61317
C         -5.23196        5.30490        6.63897
C         -5.50757        5.81600        8.06243
C         -4.48373        5.22472        9.03740
C         -4.20222        3.78089        8.64971
C         -3.52704        3.76614        7.26843
O         -3.85718        4.90757        6.49505
O         -3.52464        4.02055        3.45781
C         -4.52750        3.08213        3.85365
C         -3.87365        1.80729        4.36967
O         -4.84790        0.83476        4.73721
C         -5.73803        0.50391        3.68413
C         -6.49957        1.74980        3.26283
C         -5.51917        2.79216        2.75337
O         -6.20756        3.95152        2.30947
O         -7.45661        1.41671        2.28719
O         -5.06538       -0.00493        2.56646
C         -3.05812        2.09800        5.60870
O         -3.91034        2.56742        6.65685
O         -5.44874        3.09738        8.63265
O         -3.27689        5.97141        9.07220
O         -6.84471        5.54633        8.43573
O         -5.42152        5.92418        4.27345
H         -4.79054        7.20174        5.78040
H         -6.50447        6.75940        5.76787
H         -5.87980        4.44505        6.45105
H         -5.39415        6.90087        8.09847
H         -4.90788        5.26445       10.03859
H         -3.52148        3.31776        9.36668
H         -2.44248        3.81134        7.37280
H         -5.06440        3.53275        4.68605
H         -3.20465        1.41030        3.59902
H         -6.41521       -0.23382        4.11288
H         -6.98151        2.14272        4.16627
H         -5.00719        2.37771        1.88059
H         -6.22092        4.60046        3.03252
H         -7.73699        2.25627        1.90296
H         -4.76712       -0.89316        2.78289
H         -2.30677        2.84861        5.36349
H         -2.57252        1.18432        5.95122
H         -3.47735        4.00696        2.49553
H         -5.33244        2.34905        8.03039
H         -3.00369        6.09056        8.15520
H         -6.88760        4.58737        8.54903
H         -4.53023        5.57224        4.11961
