40
-1161.25151840
O          2.96692       -2.90164       -1.82899
C          2.15058       -3.00738       -2.88985
O          1.09909       -3.60628       -2.87079
C          2.72476       -2.23312       -4.09255
O          4.07477       -2.50444       -4.23880
C          2.01280       -2.56678       -5.40021
C          1.19092       -1.37772       -5.88827
H          0.52033       -1.70222       -6.68177
O          2.00698       -0.37065       -6.45869
C          0.33885       -0.79850       -4.75477
H         -0.16099        0.08416       -5.14114
N         -0.68548       -1.74610       -4.36182
C         -1.95399       -1.37519       -4.06045
C         -2.85934       -2.48530       -3.59494
O         -2.36802       -0.22051       -4.17318
C          1.24065       -0.40592       -3.56376
H          0.86476       -0.87956       -2.64956
O          2.60176       -0.84354       -3.78259
C          1.35933        1.08577       -3.28265
H          1.71363        1.59348       -4.18725
O          2.26257        1.26763       -2.20107
C          0.03464        1.73262       -2.87504
H         -0.49242        1.08884       -2.16250
O         -0.77975        1.98706       -4.00928
C          0.27194        3.08526       -2.21851
O         -0.96631        3.70833       -1.94201
H          2.55022       -3.38027       -1.09683
H          4.49876       -2.35306       -3.38445
H          1.38665       -3.44776       -5.27453
H          2.77342       -2.79414       -6.14358
H          2.67865       -0.15391       -5.80187
H         -0.38712       -2.66300       -4.06198
H         -2.34378       -3.43532       -3.48009
H         -3.66412       -2.59679       -4.31815
H         -3.30513       -2.19259       -2.64773
H          3.04135        0.73918       -2.40660
H         -1.42471        1.26003       -4.09446
H          0.88219        3.69551       -2.89310
H          0.80167        2.97207       -1.27941
H         -1.47882        3.60214       -2.75249
