30
-819.14914036
C          3.94969       -1.65463       -4.34560
C          3.95066       -2.82097       -3.36682
C          2.68789       -3.69595       -3.39995
C          1.36657       -3.17769       -2.81578
C          1.46435       -2.97547       -1.24441
C          0.71306       -4.10314       -0.58632
O          4.35555       -2.41966       -2.07531
N          0.87908       -1.74394       -0.79792
C          1.47639       -0.55330       -0.90129
O          2.63428       -0.41927       -1.33322
C          0.67443        0.64036       -0.46695
O          0.82438       -2.07877       -3.48295
O          3.02471       -4.89822       -2.69875
O          2.98723       -0.63941       -4.06232
H          4.95217       -1.22519       -4.34586
H          3.72365       -2.00795       -5.35052
H          4.73428       -3.49732       -3.71784
H          2.49908       -3.91148       -4.45680
H          0.65267       -3.99175       -2.98057
H          2.50819       -3.04098       -0.94164
H          1.13717       -5.10260       -0.75999
H         -0.06121       -1.80639       -0.43759
H          0.42821        1.22394       -1.35208
H         -0.24379        0.36748        0.04572
H          1.29048        1.25763        0.18083
H          1.55222       -1.46146       -3.71316
H          2.49393       -5.61015       -3.06708
H          3.14972       -0.29199       -3.17164
O         -0.30748       -3.94484        0.05319
H          3.76751       -1.70435       -1.76997
