24
-686.52841644
C          0.22393        2.08404       -2.26358
C         -0.07350        1.12793       -1.12566
C          0.57364        1.50452        0.22012
C          1.89699        0.77095        0.44746
C          1.78118       -0.74828        0.20838
C          0.56805       -1.12146       -0.64891
O          0.34474       -0.15258       -1.62733
O         -0.59389       -1.26156        0.14929
O          1.63968       -1.51413        1.40208
O          2.94623        1.31963       -0.32306
O         -0.32081        1.29648        1.29984
O          1.59757        2.04928       -2.64485
H          0.00546        3.10449       -1.95870
H         -0.40689        1.83059       -3.11652
H         -1.15420        1.11542       -0.96409
H          0.79250        2.57268        0.21842
H          2.15467        0.92229        1.49774
H          2.68198       -1.04065       -0.33404
H          0.75085       -2.04602       -1.19629
H         -0.28792       -1.71076        0.95148
H          2.33331       -1.25444        2.01486
H          2.57239        1.66599       -1.15122
H         -0.69394        0.41482        1.16259
H          1.74157        1.17068       -3.01470
