45
-1296.684640
C          8.32366       -6.88458       -5.12157
C          7.47232       -5.83595       -5.80800
C          6.97317       -6.16982       -7.22345
C          7.94265       -5.75248       -8.33796
C          8.39667       -4.30414       -8.11457
C          9.03297       -4.22301       -6.72993
O          8.06729       -4.53357       -5.72800
O          9.62538       -3.00570       -6.38218
C          8.76682       -1.89286       -6.12304
C          9.42925       -0.69053       -6.80712
O          8.99841        0.55145       -6.26725
C          7.67570        0.50199       -5.72135
C          7.65188       -0.43403       -4.50465
C          8.68656       -1.54595       -4.64459
O          8.34763       -2.61216       -3.78240
O          7.89704        0.35574       -3.34923
O          7.28675        1.78340       -5.40298
C          9.30566       -0.71333       -8.31421
O          7.92411       -0.87167       -8.67554
O          7.24257       -3.49357       -8.27258
O          9.04356       -6.61990       -8.49499
O          5.70192       -5.57724       -7.42597
O          9.52667       -7.12618       -5.85491
H          7.73164       -7.79957       -5.04021
H          8.56439       -6.52527       -4.12000
H          6.56774       -5.75719       -5.20339
H          6.82783       -7.24965       -7.28791
H          7.37825       -5.77701       -9.26911
H          9.16283       -4.06821       -8.85724
H          9.85635       -4.93650       -6.69769
H          7.76645       -2.09596       -6.50166
H         10.49495       -0.77182       -6.57680
H          6.99785        0.13352       -6.49200
H          6.66429       -0.90032       -4.44358
H          9.65577       -1.14131       -4.33736
H          8.24864       -3.40908       -4.32745
H          7.90723       -0.24006       -2.59375
H          7.57893        1.93649       -4.49473
H          9.89614       -1.53903       -8.71705
H          9.69126        0.22891       -8.70060
H          7.78602       -0.48431       -9.54418
H          7.49064       -2.57490       -8.48481
H          9.33367       -6.91310       -7.61753
H          5.87022       -4.65453       -7.66771
H         10.03637       -7.80399       -5.40268
