45
-1296.709129
C          4.76508        5.88376       -2.49939
C          4.40945        4.78688       -1.52371
C          5.19186        3.50176       -1.71995
C          4.67703        2.46921       -0.73897
C          3.18404        2.28032       -0.91517
C          2.49075        3.62816       -0.78256
O          3.01566        4.53485       -1.72529
O          2.67209        4.08480        0.53572
C          1.55543        4.77991        1.06973
C          2.04327        5.87168        2.01005
O          0.90701        6.56897        2.53818
C          0.02161        5.76426        3.26691
C         -0.47951        4.58034        2.44846
C          0.69944        3.82402        1.86801
O          0.25872        2.76407        1.02267
O         -1.31062        3.72035        3.20923
O          0.61200        5.20382        4.42432
C          2.93716        6.88669        1.33193
O          2.35226        7.37064        0.14068
O          2.72512        1.32845        0.02703
O          5.39279        1.26631       -0.98421
O          6.56235        3.78626       -1.50293
O          3.90954        7.00939       -2.31079
H          4.68330        5.50880       -3.52246
H          5.78353        6.21778       -2.32737
H          4.57340        5.14569       -0.50513
H          5.02654        3.13189       -2.73879
H          4.86802        2.82522        0.27774
H          2.99655        1.91715       -1.93014
H          1.43008        3.54554       -1.01560
H          0.98039        5.24899        0.26817
H          2.60703        5.41579        2.83035
H         -0.80429        6.42168        3.53635
H         -1.08966        4.96002        1.62941
H          1.30781        3.41441        2.68090
H         -0.45924        2.32637        1.49833
H         -0.87749        3.62959        4.06737
H          0.78146        5.91805        5.04640
H          3.89656        6.40474        1.13926
H          3.10267        7.70524        2.03696
H          3.03371        7.37888       -0.54576
H          1.90660        1.66493        0.42054
H          5.02253        0.60086       -0.39378
H          7.00031        2.93257       -1.40821
H          3.02066        6.68402       -2.49617
