45
-1296.691374
C         -2.12181       -3.93138        1.38737
C         -3.15072       -2.98349        1.97037
C         -2.81600       -1.49343        1.86909
C         -2.01570       -0.94012        3.05658
C         -2.63119       -1.42289        4.37774
C         -2.69290       -2.94413        4.35488
O         -3.55925       -3.35846        3.28555
O         -3.10001       -3.57891        5.51564
C         -4.46222       -3.47061        5.98127
C         -4.37655       -3.22151        7.48705
O         -5.66686       -3.28515        8.08640
C         -6.31870       -4.50826        7.93048
C         -6.49325       -4.82371        6.45455
C         -5.16132       -4.79387        5.73600
O         -5.45153       -5.05822        4.37053
O         -7.08010       -6.11529        6.36144
O         -5.58943       -5.52939        8.57464
C         -3.79924       -1.86377        7.84201
O         -4.54391       -0.77160        7.34954
O         -3.89242       -0.80878        4.59380
O         -0.63914       -1.21995        2.97242
O         -4.09535       -0.84954        1.80167
O         -0.85855       -3.77524        2.03417
H         -2.03512       -3.72325        0.31804
H         -2.49117       -4.94841        1.52370
H         -4.04494       -3.12008        1.35933
H         -2.24895       -1.31829        0.95052
H         -2.11114        0.14797        3.03918
H         -1.97969       -1.11372        5.19374
H         -1.68624       -3.32345        4.17952
H         -4.99142       -2.66110        5.48348
H         -3.72628       -3.99175        7.91402
H         -7.29084       -4.37565        8.40748
H         -7.14811       -4.06677        6.01492
H         -4.51920       -5.58142        6.14302
H         -4.73993       -4.66340        3.84504
H         -6.99821       -6.37906        5.43768
H         -5.89059       -6.35442        8.17255
H         -2.75844       -1.83581        7.50669
H         -3.80505       -1.78082        8.92710
H         -4.39595       -0.71196        6.39654
H         -4.41075       -0.93161        3.78489
H         -0.52825       -2.13096        2.65844
H         -3.94548        0.09796        1.71024
H         -0.23533       -4.40630        1.66337
