40
-1161.25233976
O         10.42093        3.61967       -4.93888
C         10.24829        2.39619       -4.41118
O         11.02660        1.48261       -4.53376
C          8.92920        2.32160       -3.64162
O          7.92167        2.67701       -4.54811
C          8.69739        0.94175       -3.06041
C          7.49107        0.97784       -2.13235
H          7.34781       -0.00526       -1.67946
O          6.31154        1.27778       -2.87042
C          7.73522        1.97838       -1.00462
H          6.80081        2.13460       -0.46098
N          8.69056        1.40372       -0.07757
C          8.82308        1.92937        1.17259
C          9.80793        1.23767        2.07948
O          8.17774        2.91200        1.52026
C          8.22564        3.35144       -1.49371
H          8.84687        3.74691       -0.69148
O          9.11657        3.29679       -2.62296
C          7.10656        4.37091       -1.66744
H          6.67323        4.50519       -0.67411
O          6.05628        3.92367       -2.52521
C          7.59491        5.72554       -2.18125
H          6.78753        6.44403       -2.03947
O          7.79259        5.68122       -3.59455
C          8.83136        6.26195       -1.48571
O          9.10414        7.58301       -1.91543
H         11.26237        3.59498       -5.41765
H          7.14491        2.14607       -4.29915
H          9.59677        0.62863       -2.53203
H          8.52750        0.23531       -3.87073
H          6.03060        2.18997       -2.64497
H          9.21117        0.58144       -0.32782
H         10.28732        0.37876        1.61639
H          9.28443        0.91919        2.97755
H         10.56758        1.95662        2.37661
H          6.29633        4.27326       -3.40005
H          8.46615        5.00622       -3.76675
H          9.68127        5.60309       -1.68610
H          8.67112        6.30415       -0.40854
H          9.05292        7.56308       -2.87727
