40
-1161.25121415
O          8.86612       -3.78778        6.13512
C          8.90094       -3.76253        7.48418
O          9.89197       -3.95955        8.13988
C          7.50312       -3.45805        8.04123
O          6.58938       -4.38254        7.51584
C          7.48166       -3.51846        9.55226
C          6.24934       -2.86096       10.18374
H          6.49616       -2.65637       11.22793
O          5.12358       -3.70407       10.22639
C          5.94734       -1.50460        9.53118
H          4.93583       -1.20364        9.80898
N          6.87554       -0.52012       10.05736
C          6.64889        0.81037        9.88692
C          7.66758        1.73716       10.50022
O          5.67233        1.21988        9.26688
C          6.05078       -1.50910        8.00184
H          6.19333       -0.46759        7.71662
O          7.26964       -2.13919        7.56893
C          4.79508       -1.95355        7.25093
H          4.06801       -1.16310        7.45528
O          4.18504       -3.14889        7.71731
C          4.95269       -2.00160        5.72236
H          3.94011       -2.08862        5.32667
O          5.67404       -3.15577        5.28118
C          5.62150       -0.75268        5.13403
O          7.02994       -0.91914        5.02898
H          9.76538       -3.99318        5.84023
H          6.48299       -4.16462        6.56538
H          8.38885       -3.02473        9.90081
H          7.52939       -4.55712        9.87311
H          4.60216       -3.54917        9.42168
H          7.68946       -0.82107       10.56425
H          8.46298        1.21330       11.02459
H          7.15560        2.40139       11.19211
H          8.09839        2.34880        9.71114
H          4.82612       -3.85921        7.54498
H          6.49427       -2.79488        4.90370
H          5.35705        0.13182        5.71823
H          5.27453       -0.60257        4.11490
H          7.37770       -1.16306        5.89992
