45
-1296.693740
C         -0.37881       -9.35506        7.29994
C         -0.40612       -8.86504        8.72137
C         -0.92231       -9.90806        9.69644
C         -0.90824       -9.29006       11.07632
C         -1.72575       -8.00966       11.10926
C         -1.26528       -7.06515       10.00222
O         -1.27408       -7.72986        8.75616
O          0.00804       -6.62851       10.38706
C          0.50398       -5.42455        9.80056
C         -0.24133       -4.16155       10.22934
O          0.61397       -3.04319        9.97223
C          1.40674       -3.10185        8.78458
C          0.78262       -4.02398        7.74972
C          0.58440       -5.45541        8.28091
O          1.64990       -6.29190        7.87342
O         -0.45077       -3.40042        7.38737
O          1.56281       -1.81157        8.30266
C         -0.55279       -4.10530       11.70770
O          0.59288       -4.33983       12.50702
O         -1.64878       -7.40336       12.38762
O         -1.42888      -10.25610       11.97667
O         -0.08168      -11.04551        9.63260
O          0.27423       -8.35473        6.51001
H         -1.40087       -9.50923        6.94801
H          0.16636      -10.29755        7.27047
H          0.60537       -8.57130        9.01406
H         -1.95446      -10.16870        9.43366
H          0.13137       -9.05357       11.32929
H         -2.77380       -8.25693       10.94287
H         -1.95811       -6.23037        9.88148
H          1.51799       -5.35569       10.19325
H         -1.17201       -4.04394        9.66380
H          2.40826       -3.45715        9.03201
H          1.46263       -4.07709        6.89859
H         -0.36307       -5.81505        7.87748
H          1.27350       -7.00988        7.34163
H         -0.74480       -3.78666        6.55792
H          0.70146       -1.56308        7.94453
H         -1.28297       -4.86770       11.96825
H         -0.99102       -3.12702       11.92091
H          1.23307       -3.66499       12.25742
H         -0.77083       -6.99863       12.43260
H         -1.50431       -9.82191       12.83404
H         -0.27276      -11.56515       10.42206
H          0.46377       -8.72599        5.64487
