45
-1296.69736234
C          0.36275       10.04475        8.47622
C          0.81943        8.82333        7.70367
C         -0.11115        7.59702        7.80889
C          0.35764        6.60818        8.87442
C          1.84889        6.23407        8.71129
C          2.62324        7.28489        7.91619
O          2.15288        8.57718        8.19744
O          1.93939        9.67095        4.34755
C          1.76581        8.31312        3.97666
C          3.05696        7.57247        4.28849
O          2.91899        6.18973        3.95445
C          2.62728        5.95609        2.59838
C          1.37203        6.69634        2.15387
C          1.48820        8.16904        2.49936
O          0.28371        8.86394        2.22398
O          1.11869        6.51415        0.77190
O          3.66046        6.39180        1.73944
C          3.46332        7.64840        5.73660
O          2.49395        6.97762        6.54077
O          2.06679        4.94220        8.17796
O          0.09322        7.08286       10.18155
O         -0.26568        6.95003        6.55100
O          0.42184        9.84498        9.88593
H         -0.67240       10.27141        8.23208
H          0.98340       10.89606        8.19207
H          0.87763        9.09929        6.64741
H         -1.10980        7.93798        8.08227
H         -0.20908        5.68799        8.74039
H          2.25327        6.23054        9.72232
H          3.68077        7.28795        8.18669
H          0.93311        7.86800        4.52832
H          3.86112        8.02719        3.70123
H          2.48793        4.87858        2.52158
H          0.51701        6.28025        2.68586
H          2.32013        8.61099        1.93929
H          0.02684        8.62950        1.32481
H          1.97038        6.62497        0.33156
H          4.41207        5.80188        1.85224
H          3.53076        8.69765        6.02694
H          4.43207        7.16260        5.87421
H          1.23050       10.15821        3.91032
H          2.11431        5.04093        7.22044
H          0.12277        8.05312       10.17343
H          0.63042        6.75122        6.24682
H          1.35694        9.73472       10.09335
