24
-686.52521268
C         -1.17139       -0.49998        2.96964
C          0.00970       -0.70893        2.05212
C          0.93679        0.50593        1.98516
C          1.46621        0.65918        0.55374
C          1.79074       -0.71978       -0.01052
C          0.47260       -1.51988       -0.12509
O         -0.52876       -0.97576        0.75645
O         -0.05874       -1.51720       -1.40446
O          2.76180       -1.40200        0.76068
O          0.51553        1.32262       -0.26985
O          1.98830        0.25524        2.92110
O         -1.97171       -1.65789        3.06494
H         -1.74855        0.35691        2.60464
H         -0.81155       -0.27129        3.97119
H          0.58616       -1.57351        2.39655
H          0.39497        1.41919        2.24687
H          2.36315        1.27850        0.56341
H          2.19023       -0.61850       -1.01940
H          0.65548       -2.55786        0.15402
H          0.01290       -0.62070       -1.75079
H          2.74883       -1.03982        1.65657
H         -0.32717        0.88337       -0.09023
H          2.48051        1.07230        3.05081
H         -2.18471       -1.91063        2.16036
