24
-686.52599308
C         -1.40053        1.43369       -1.16229
C         -1.02799        0.70814        0.12660
C          0.07355        1.33453        0.98826
C          1.48383        0.97136        0.51818
C          1.59420       -0.52338        0.23245
C          0.44979       -1.02472       -0.64437
O         -0.79770       -0.68994       -0.04534
O          0.49890       -2.40179       -0.77282
O          1.49647       -1.26541        1.45281
O          1.85114        1.65313       -0.68628
O         -0.08027        0.94473        2.34374
O         -0.44628        1.43321       -2.20486
H         -1.68828        2.45564       -0.88349
H         -2.28399        0.94134       -1.56416
H         -1.92463        0.75867        0.74759
H         -0.03706        2.42092        0.97223
H          2.17958        1.22951        1.31999
H          2.53597       -0.72931       -0.27815
H          0.51816       -0.60269       -1.64394
H          0.56937       -2.74846        0.12506
H          2.35099       -1.23858        1.89208
H          2.09387        2.55426       -0.45262
H          0.08459       -0.00733        2.36596
H          0.40673        1.68598       -1.82532
