45
-1296.690169
C          5.97758        1.24889       -5.97997
C          4.91634        2.13825       -6.59224
C          4.53554        3.33662       -5.69961
C          3.04538        3.33442       -5.43064
C          2.67730        1.95790       -4.93321
C          2.83053        0.94743       -6.08531
O          3.78497        1.40027       -7.04149
O          1.63644        0.84843       -6.78643
C          1.11176       -0.45856       -6.99300
C          1.02269       -0.74195       -8.48589
O          0.39453       -2.01313       -8.69312
C         -0.90533       -2.11229       -8.17848
C         -0.91582       -1.83803       -6.68014
C         -0.26695       -0.50727       -6.37591
O         -0.23997       -0.38209       -4.96656
O         -2.27337       -1.84822       -6.26120
O         -1.74723       -1.21012       -8.85330
C          2.38686       -0.85278       -9.13023
O          3.15931       -1.89246       -8.54701
O          1.34704        1.91292       -4.44304
O          2.70047        4.25601       -4.40762
O          4.95966        4.58709       -6.23634
O          5.49684        0.76425       -4.73058
H          6.88991        1.83883       -5.84942
H          6.17574        0.42601       -6.66906
H          5.34494        2.54323       -7.51056
H          5.04170        3.26195       -4.73794
H          2.49190        3.55398       -6.35064
H          3.37541        1.68500       -4.13980
H          3.12826       -0.02938       -5.70015
H          1.75569       -1.20447       -6.52183
H          0.44681        0.04907       -8.97226
H         -1.20871       -3.14139       -8.37729
H         -0.34956       -2.62755       -6.17776
H         -0.86497        0.29341       -6.82373
H          0.20039        0.45928       -4.75697
H         -2.27877       -1.45209       -5.38148
H         -2.49729       -1.06551       -8.26119
H          2.93461        0.07240       -8.97197
H          2.25551       -1.01623      -10.20232
H          2.62832       -2.69174       -8.62943
H          1.25170        2.68286       -3.86937
H          3.11015        5.09769       -4.63527
H          4.55752        4.67814       -7.10709
H          6.12809        0.12410       -4.39226
