45
-1296.69777043
C          5.14485        5.14187        1.83117
C          4.90099        3.71447        2.26900
C          6.21286        2.91932        2.28532
C          5.98791        1.44284        1.92222
C          4.62067        1.00442        2.40226
C          3.54830        1.84675        1.69661
O          3.97527        3.13198        1.34670
O          2.06381        3.69472        4.66388
C          1.01536        4.21211        3.85342
C          1.23481        3.95254        2.37036
O          0.16371        4.51864        1.61870
C          0.10655        5.91393        1.72306
C         -0.05820        6.34428        3.17723
C          1.00440        5.71142        4.04680
O          0.70705        6.09506        5.38360
O          0.04215        7.76104        3.19910
O          1.27858        6.47853        1.17208
C          1.26957        2.48222        2.00122
O          2.42731        1.85219        2.56706
O          4.63205        1.19334        3.81132
O          6.00264        1.19319        0.52643
O          6.86180        3.06189        3.53599
O          4.05663        6.01281        2.07213
H          5.42890        5.13397        0.77452
H          5.98398        5.52443        2.41097
H          4.47420        3.71905        3.27519
H          6.90061        3.33844        1.54651
H          6.75114        0.86017        2.44383
H          4.45050       -0.04445        2.15397
H          3.26272        1.37904        0.75384
H          0.05081        3.78958        4.15925
H          2.18150        4.39592        2.07818
H         -0.76357        6.20894        1.13653
H         -1.04277        6.01881        3.52405
H          1.98889        6.08774        3.75224
H          1.38911        5.70373        5.94008
H          0.16977        8.00803        4.12261
H          1.37017        7.34451        1.59529
H          1.27851        2.38538        0.91414
H          0.39885        1.96199        2.39877
H          2.40247        2.91181        4.20979
H          3.74426        0.99621        4.12818
H          6.86783        1.44112        0.18892
H          6.28591        2.63467        4.18216
H          3.37044        5.87214        1.40923
