45
-1296.709150
C          0.71335       10.03590        5.18058
C         -0.26760        9.23006        4.36001
C          0.37630        8.03939        3.66903
C         -0.66845        7.34434        2.82533
C         -1.23544        8.32092        1.81591
C         -1.79741        9.53257        2.54013
O         -0.81635       10.12679        3.36965
O         -2.91782        9.11755        3.28003
C         -4.01597       10.02436        3.30218
C         -4.33571       10.48363        4.71740
O         -5.43717       11.40071        4.65198
C         -6.61384       10.84767        4.12540
C         -6.39873       10.28106        2.72792
C         -5.22143        9.32312        2.72737
O         -4.90246        8.90742        1.40696
O         -7.56412        9.65520        2.22174
O         -7.11262        9.77540        4.90052
C         -3.17659       11.18542        5.40446
O         -2.46078       12.08212        4.57034
O         -2.19272        7.70398        0.98040
O         -0.03753        6.24868        2.18138
O          0.88254        7.17967        4.67354
O          0.07980       10.96194        6.04501
H          1.41582       10.52920        4.50233
H          1.26748        9.34982        5.81533
H         -1.06830        8.86711        5.00880
H          1.18240        8.39046        3.01340
H         -1.47095        6.99143        3.48142
H         -0.41856        8.66358        1.17761
H         -2.08200       10.30678        1.82613
H         -3.78599       10.90647        2.69929
H         -4.61927        9.61820        5.32435
H         -7.32769       11.67024        4.09970
H         -6.17065       11.10652        2.05409
H         -5.45484        8.45380        3.35102
H         -5.73402        8.64760        0.99162
H         -7.92089        9.13421        2.95194
H         -7.43144       10.13347        5.73483
H         -2.50816       10.43259        5.82355
H         -3.58549       11.76790        6.22781
H         -1.85217       11.53564        4.04918
H         -3.07722        7.91666        1.31735
H         -0.67666        5.90358        1.54702
H          1.06401        6.33891        4.23773
H         -0.37479       11.62593        5.51533
