24
-686.53464065
C         -2.27546        0.95691       -0.58979
C         -0.99687        0.43536        0.02861
C          0.15745        1.43125       -0.05840
C          1.40943        0.79023        0.49666
C          1.67484       -0.49989       -0.23970
C          0.45366       -1.39620       -0.14644
O         -0.66142       -0.74122       -0.70330
O          0.61301       -2.56506       -0.88578
O          2.76021       -1.22515        0.31228
O          2.55490        1.61019        0.33428
O         -0.08527        2.59828        0.72095
O         -2.09136        1.33545       -1.94260
H         -2.60888        1.84369       -0.05487
H         -3.04602        0.18929       -0.49259
H         -1.18005        0.19265        1.08341
H          0.32334        1.69091       -1.10528
H          1.24856        0.57013        1.55888
H          1.84758       -0.27997       -1.29786
H          0.24701       -1.62402        0.91006
H          1.52245       -2.85148       -0.73956
H          3.50346       -0.61458        0.36682
H          2.34225        2.45832        0.73897
H         -0.60298        3.20720        0.18695
H         -1.76692        0.55210       -2.39981
