30
-819.15322477
C          2.08905       -2.33760       -6.10960
C          2.17097       -3.48249       -5.10558
C          2.46466       -3.11749       -3.64600
C          1.50708       -2.14272       -2.97641
C          1.71803       -2.04514       -1.44432
C          2.09355       -3.36641       -0.80710
O          3.17560       -4.40422       -5.50841
N          0.54967       -1.55152       -0.75274
C          0.12345       -0.27483       -0.83412
O          0.62955        0.54067       -1.61314
C         -1.00317        0.11233        0.08235
O          1.74511       -0.86704       -3.55531
O          3.79884       -2.63600       -3.50640
O          0.88449       -1.60438       -6.01963
H          2.96827       -1.69063       -6.01883
H          2.11930       -2.79224       -7.09703
H          1.22030       -4.01733       -5.13803
H          2.43172       -4.07190       -3.11935
H          0.47657       -2.47153       -3.14771
H          2.56273       -1.36628       -1.28914
H          3.07165       -3.77111       -1.09636
H          0.13833       -2.19089       -0.08801
H         -1.79304        0.56474       -0.51103
H         -1.40108       -0.72839        0.64366
H         -0.63559        0.86644        0.77484
H          1.38622       -0.19615       -2.92629
H          3.74637       -1.68998       -3.70130
H          0.97922       -1.04947       -5.23338
O          1.37686       -3.93461       -0.00831
H          4.01122       -4.02192       -5.21377
