24
-686.53667024
C          0.02567        2.48550       -2.59062
C          0.19648        1.52185       -1.44710
C          1.10805        2.07179       -0.36188
C          1.26423        1.01833        0.71020
C          1.80874       -0.26489        0.11430
C          0.93747       -0.70540       -1.05377
O          0.76845        0.32514       -1.98728
O         -0.28160       -1.13908       -0.48482
O          1.92170       -1.27583        1.10291
O          2.14248        1.54172        1.69625
O          0.52507        3.25100        0.16383
O         -1.02656        2.00007       -3.41403
H          0.96879        2.54249       -3.14094
H         -0.20908        3.46640       -2.17545
H         -0.78492        1.30968       -1.01665
H          2.09390        2.28373       -0.79328
H          0.27738        0.82483        1.14427
H          2.81558       -0.07853       -0.25758
H          1.41330       -1.51465       -1.60748
H         -0.82087       -1.50701       -1.19223
H          1.03243       -1.63544        1.20995
H          2.32616        0.82119        2.30950
H          0.99083        3.43332        0.98802
H         -1.13865        2.61689       -4.14071
