45
-1296.689089
C         -2.86029       -2.75696        5.94338
C         -1.37986       -2.55136        5.70687
C         -0.58521       -2.31673        6.98612
C          0.85370       -2.00223        6.63061
C          0.90550       -0.81492        5.69551
C          0.07368       -1.09512        4.45600
O         -1.26687       -1.38793        4.86357
O          0.64779       -2.13889        3.75273
C          0.26271       -2.35796        2.38797
C          0.29780       -1.11255        1.50545
O         -0.30800       -1.49427        0.27033
C         -1.73520       -1.51312        0.36049
C         -2.19510       -2.24012        1.65240
C         -1.06326       -3.12393        2.17381
O         -0.86945       -4.18173        1.24336
O         -2.65332       -1.27773        2.60175
O         -2.26969       -0.23718        0.29604
C          1.70939       -0.65464        1.19998
O          2.42944       -1.63888        0.48040
O          2.21677       -0.49840        5.29524
O          1.61041       -1.64015        7.77459
O         -0.54212       -3.48392        7.79922
O         -3.55239       -3.16965        4.78279
H         -3.28187       -1.83796        6.36298
H         -2.98742       -3.55900        6.66846
H         -0.96690       -3.42387        5.19653
H         -1.00495       -1.46873        7.53663
H          1.29201       -2.87332        6.13518
H          0.43623        0.03532        6.20330
H         -0.01844       -0.18742        3.86119
H          1.04329       -3.02508        2.02589
H         -0.26200       -0.27590        1.92834
H         -2.03639       -2.06569       -0.52565
H         -3.03615       -2.88478        1.40133
H         -1.37228       -3.59734        3.10309
H         -0.42218       -3.79230        0.48295
H         -2.09573       -1.30894        3.40604
H         -2.57242       -0.03732        1.19561
H          2.24522       -0.49050        2.13402
H          1.66412        0.28553        0.64598
H          1.95024       -1.77277       -0.34367
H          2.75213       -0.50606        6.09699
H          1.58343       -2.39364        8.37385
H         -1.33680       -3.51886        8.33744
H         -3.57654       -2.43529        4.15672
