45
-1296.690230
C        -13.07306       12.01041        6.92108
C        -11.83085       11.35459        7.46765
C        -11.05120       12.23250        8.45328
C         -9.55691       11.89048        8.36198
C         -9.39447       10.39109        8.14177
C        -10.03105       10.02712        6.78170
O        -10.97701       10.98960        6.36917
O        -10.59373        8.75460        6.94885
C        -10.87662        8.00535        5.76476
C        -12.15853        8.47782        5.05273
O        -13.27528        7.61957        5.31673
C        -13.43947        7.27609        6.66641
C        -12.23856        6.42316        7.16422
C        -11.00839        6.57131        6.25741
O        -11.04946        5.64094        5.20205
O        -11.87406        6.79993        8.49988
O        -13.60761        8.42079        7.46397
C        -12.04258        8.48164        3.54317
O        -11.90162        7.16080        3.01500
O        -10.03745        9.73383        9.22737
O         -8.89566       12.61208        7.33455
O        -11.56575       12.08245        9.76368
O        -13.87323       11.12535        6.15890
H        -12.79129       12.82696        6.25643
H        -13.62330       12.43126        7.76813
H        -12.12293       10.44513        7.99509
H        -11.16150       13.28739        8.19703
H         -9.08675       12.17577        9.30100
H         -8.33572       10.12726        8.10924
H         -9.27995       10.00784        5.98962
H        -10.02137        8.07865        5.08463
H        -12.38478        9.49077        5.37767
H        -14.36285        6.69917        6.67851
H        -12.51286        5.37028        7.12796
H        -10.13929        6.34863        6.87721
H        -11.29354        6.10400        4.38223
H        -12.35907        6.24007        9.11332
H        -12.92925        8.35031        8.15393
H        -11.16075        9.04077        3.23838
H        -12.92363        8.96502        3.12177
H        -12.77030        6.75226        3.09822
H        -10.27381        8.84820        8.91447
H         -9.43447       12.50383        6.54214
H        -11.30815       11.19173       10.03607
H        -14.01227       10.32320        6.68124
