40
-1161.25159270
O          5.26498        2.86222        7.70532
C          4.38542        3.87662        7.83663
O          4.47735        4.74967        8.66361
C          3.29705        3.78473        6.75848
O          2.86865        2.46839        6.58173
C          2.08349        4.64318        7.08866
C          1.42471        5.11798        5.80109
H          0.57726        5.76120        6.04206
O          0.87800        4.04436        5.06011
C          2.42826        5.94186        4.95952
H          2.27962        5.64976        3.92208
N          2.17440        7.36580        5.05046
C          2.38490        8.20600        4.00673
C          2.03390        9.65209        4.24270
O          2.82568        7.81994        2.92410
C          3.85836        5.60788        5.36974
H          4.11387        6.10763        6.30962
O          3.91694        4.18956        5.54475
C          4.90291        6.02858        4.34228
H          4.98920        7.11925        4.41308
O          4.58201        5.63331        3.02705
C          6.25436        5.42502        4.67717
H          6.19127        4.34405        4.51405
O          6.53009        5.70479        6.04325
C          7.35082        6.00461        3.80667
O          8.62730        5.54088        4.25696
H          5.96845        3.02713        8.34922
H          3.65554        1.93838        6.40033
H          2.39896        5.49269        7.69279
H          1.38921        4.04686        7.67660
H          1.52165        3.32540        5.07178
H          1.85688        7.75733        5.92124
H          1.69654        9.85183        5.25661
H          1.25096        9.93228        3.54181
H          2.90727       10.26119        4.02409
H          3.93943        6.29019        2.70984
H          7.48862        5.62112        6.12616
H          7.37286        7.08703        3.92462
H          7.17552        5.76326        2.76007
H          8.74261        4.64577        3.92684
