30
-819.15241237
C          3.24684        1.28681        1.85162
C          2.96243        0.44372        0.62390
C          1.87610       -0.59594        0.89156
C          1.14514       -1.09732       -0.35372
C          1.99700       -1.81377       -1.40935
C          2.70527       -3.03304       -0.86692
O          4.15956       -0.22831        0.21772
N          2.91264       -0.96403       -2.11921
C          2.64235       -0.55046       -3.39407
O          1.63823       -0.89866       -3.99877
C          3.67976        0.36203       -3.99909
O          0.08061       -1.94461        0.07163
O          0.91312       -0.01098        1.75995
O          3.64442        0.45311        2.93505
H          4.09058        1.93938        1.63702
H          2.37970        1.89215        2.10603
H          2.67401        1.09589       -0.20185
H          2.35305       -1.44848        1.38683
H          0.67256       -0.23998       -0.83582
H          1.29206       -2.18217       -2.16496
H          3.62178       -3.32150       -1.40886
H          3.72488       -0.62608       -1.62523
H          3.18964        1.27963       -4.31494
H          4.48959        0.59865       -3.31337
H          4.08568       -0.11726       -4.88679
H          0.50359       -2.77213        0.34506
H          0.13444       -0.58050        1.68777
H          2.83339        0.07519        3.29199
O          2.30180       -3.68602        0.07729
H          4.56748       -0.54550        1.03465
