45
-1296.695156
C          1.39329       -1.82258        5.65827
C          0.97477       -1.29813        4.30150
C          1.57849        0.06109        3.98665
C          0.99613        0.59306        2.69751
C         -0.51336        0.65592        2.81358
C         -1.04351       -0.72319        3.17545
O         -0.45951       -1.21308        4.35437
O         -0.77676       -1.57133        2.08064
C         -1.80465       -2.51607        1.79837
C         -1.12751       -3.70820        1.12171
O         -0.77837       -3.41299       -0.23369
C         -1.87371       -2.97649       -1.03615
C         -2.37018       -1.64384       -0.50769
C         -2.85686       -1.82009        0.93412
O         -4.04122       -2.61466        0.99624
O         -1.34709       -0.66381       -0.56630
O         -1.38215       -2.77258       -2.31926
C         -1.82827       -5.05125        1.29650
O         -3.08703       -5.20316        0.67402
O         -1.12010        1.16897        1.64639
O          1.55142        1.87961        2.47461
O          2.97964       -0.12466        3.88171
O          0.95026       -0.98417        6.70955
H          2.47831       -1.85108        5.70753
H          1.00548       -2.83795        5.77537
H          1.27899       -2.00691        3.52648
H          1.33731        0.75466        4.79765
H          1.27033       -0.08618        1.88258
H         -0.77013        1.34170        3.62177
H         -2.11579       -0.68233        3.37614
H         -2.27217       -2.85348        2.72891
H         -0.16716       -3.81440        1.62912
H         -2.66546       -3.72433       -1.00856
H         -3.19841       -1.29833       -1.13046
H         -3.04360       -0.83050        1.35633
H         -4.73666       -2.17462        0.49706
H         -0.51265       -1.14982       -0.61216
H         -1.05608       -3.62026       -2.63813
H         -1.88953       -5.24113        2.37471
H         -1.18327       -5.81297        0.86271
H         -3.63966       -4.45026        0.92516
H         -1.07859        0.49137        0.94743
H          1.03336        2.28148        1.76763
H          3.33657        0.70389        3.54334
H         -0.00091       -0.89203        6.59518
