24
-686.53144054
C         -2.02147        0.22450        0.47822
C         -0.78960       -0.26512        1.23073
C          0.25165        0.80166        1.56239
C          1.20754        1.11399        0.40989
C          1.74938       -0.19096       -0.18759
C          0.68418       -1.25967       -0.42580
O         -0.20121       -1.43562        0.65376
O         -0.00841       -0.98292       -1.64254
O          2.74781       -0.74910        0.65071
O          0.65712        1.99223       -0.53933
O          1.09614        0.34421        2.62641
O         -1.77883        0.83622       -0.77695
H         -2.51976        0.97132        1.09570
H         -2.69645       -0.62740        0.36539
H         -1.18591       -0.62878        2.18509
H         -0.26150        1.72336        1.85045
H          2.06726        1.62245        0.84594
H          2.21432        0.03764       -1.14416
H          1.19193       -2.21775       -0.51146
H         -0.41641       -1.80765       -1.92681
H          2.41882       -0.66338        1.55567
H         -0.26768        1.73465       -0.70150
H          0.54037       -0.01917        3.32261
H         -1.30260        0.17550       -1.31380
