24
-686.52517679
C          0.29856        1.37258       -2.67282
C         -0.01656        1.33866       -1.19495
C          1.12440        1.88688       -0.32550
C          1.50515        0.87680        0.72731
C          1.78875       -0.42924        0.01656
C          0.47005       -0.97720       -0.55432
O         -0.47731        0.04464       -0.79219
O         -0.13675       -1.83535        0.39103
O          2.39490       -1.36746        0.88713
O          2.65157        1.36016        1.40349
O          0.67816        3.11335        0.23613
O          1.43755        0.55033       -2.90513
H          0.49226        2.41088       -2.95733
H         -0.56755        1.00487       -3.22611
H         -0.87431        1.98771       -1.02366
H          2.01209        2.05617       -0.94151
H          0.67343        0.75490        1.43066
H          2.48970       -0.24144       -0.79474
H          0.64593       -1.56857       -1.45118
H         -0.80117       -1.29340        0.83298
H          1.65941       -1.88265        1.24873
H          3.05322        0.58677        1.81891
H          1.38425        3.41479        0.81896
H          1.62508        0.55172       -3.84696
