45
-1296.700719
C          5.56067       -6.43828       -1.94206
C          6.55824       -6.85546       -2.99614
C          5.94181       -7.66702       -4.12119
C          7.03814       -8.10679       -5.06525
C          8.08717       -8.90012       -4.30790
C          8.59407       -8.07040       -3.13834
O          7.53887       -7.64621       -2.30596
O          9.27883       -6.98659       -3.70776
C         10.31605       -6.44434       -2.89525
C         10.42382       -4.97490       -3.30737
O         11.08495       -4.80962       -4.55782
C         12.33861       -5.46320       -4.67923
C         12.23180       -6.96136       -4.46279
C         11.59496       -7.26269       -3.10758
O         12.52398       -7.09650       -2.05832
O         11.45480       -7.55997       -5.48699
O         12.74986       -5.28066       -6.00366
C         10.93006       -4.02813       -2.23697
O         12.25440       -4.37801       -1.82377
O          9.13967       -9.31484       -5.15186
O          6.43626       -8.89167       -6.08421
O          4.98815       -6.84897       -4.77637
O          6.19124       -5.69186       -0.91306
H          5.07185       -7.33070       -1.53988
H          4.80644       -5.79873       -2.39087
H          7.03365       -5.96518       -3.41501
H          5.46428       -8.55986       -3.69968
H          7.50456       -7.21496       -5.49696
H          7.62063       -9.80421       -3.91467
H          9.25137       -8.65875       -2.49527
H         10.03323       -6.49736       -1.83890
H          9.39875       -4.65560       -3.50204
H         13.05345       -5.02834       -3.97691
H         13.24330       -7.37524       -4.45183
H         11.31649       -8.31693       -3.11280
H         12.58160       -6.14930       -1.85804
H         11.65306       -7.06547       -6.29274
H         12.64176       -4.34670       -6.21133
H         10.23833       -4.07066       -1.39230
H         10.92390       -3.01945       -2.65193
H         12.51984       -3.79169       -1.10968
H          9.75827       -8.57025       -5.25596
H          7.16151       -9.28639       -6.58245
H          4.77992       -7.29448       -5.60555
H          6.90547       -6.25086       -0.59116
