45
-1296.69050900
C          3.20370        1.95361        9.15424
C          3.00256        2.84015        7.93570
C          4.30963        3.45387        7.47004
C          4.05120        4.30319        6.25267
C          3.06046        5.38914        6.62580
C          1.80269        4.76916        7.22294
O          2.08523        3.89283        8.28251
O         -2.46714        2.00344        4.47297
C         -2.01547        2.13585        5.80926
C         -0.51453        2.45794        5.77349
O          0.28578        1.42452        6.35151
C         -0.01033        1.09256        7.69186
C         -1.53180        1.07103        7.94871
C         -2.24894        0.88796        6.62784
O         -3.64477        0.74267        6.80742
O         -1.88598        0.06504        8.87534
O          0.54125       -0.18611        7.89580
C         -0.20857        3.80063        6.40477
O          1.15029        4.12742        6.14758
O          2.75649        6.21427        5.51398
O          5.29307        4.85607        5.84324
O          5.21885        2.39559        7.20827
O          4.09141        2.49624       10.11649
H          3.54380        0.97620        8.81088
H          2.24742        1.82426        9.65591
H          2.57335        2.23976        7.12839
H          4.69054        4.10077        8.26614
H          3.63019        3.67671        5.45879
H          3.51840        6.03337        7.37560
H          1.15775        5.54005        7.65009
H         -2.55999        2.94650        6.30886
H         -0.20764        2.48207        4.72986
H          0.49017        1.76763        8.38647
H         -1.84791        2.02319        8.38140
H         -1.83816        0.02540        6.09253
H         -3.75555        0.12110        7.53748
H         -1.17737       -0.59223        8.82018
H          0.60895       -0.58085        7.01732
H         -0.38964        3.76760        7.48210
H         -0.86156        4.55937        5.96485
H         -3.39255        1.73742        4.52211
H          2.12984        5.70685        4.98294
H          5.09389        5.51541        5.16902
H          5.94761        2.78597        6.71165
H          4.98087        2.35537        9.77886
