40
-1161.24244006
O          1.82357        1.01765        9.72081
C          2.71790        0.22901        9.06703
O          2.54324       -0.94219        8.86465
C          3.91740        1.05248        8.57700
O          4.98895        0.18159        8.50883
C          3.59569        1.64273        7.20288
C          2.70543        2.86365        7.27385
H          1.75361        2.61548        7.74820
O          2.35389        3.35538        5.99088
C          3.42997        3.91203        8.10337
H          4.35171        4.18443        7.59076
N          2.61613        5.10580        8.20665
C          3.08435        6.34547        7.90543
C          2.05185        7.44223        7.88062
O          4.27108        6.58073        7.69406
C          3.74413        3.35509        9.50168
H          2.79581        3.38135       10.05918
O          4.26098        2.03751        9.53264
C          4.78108        4.13761       10.31462
H          4.88847        3.58200       11.25382
O          4.35752        5.47056       10.57403
C          6.20222        4.27296        9.76079
H          6.71853        4.85347       10.53415
O          6.30429        4.93627        8.51573
C          6.98578        2.96875        9.58329
O          6.77173        2.38642        8.30087
H          1.09049        0.42867        9.95524
H          5.75120        0.75956        8.32052
H          3.14858        0.86467        6.58553
H          4.55058        1.92496        6.75280
H          3.16931        3.57552        5.52732
H          1.61704        4.98087        8.18341
H          1.03286        7.07775        7.98335
H          2.15120        7.98707        6.94563
H          2.27031        8.13397        8.69156
H          3.44522        5.44100       10.87709
H          5.63051        5.63781        8.43100
H          6.69980        2.23377       10.33022
H          8.04728        3.19642        9.69524
H          6.76341        3.14431        7.69976
