24
-686.52215663
C         -6.87814       -3.40688       -0.20230
C         -5.77112       -4.17009       -0.90454
C         -4.37135       -3.63435       -0.62737
C         -4.22196       -2.13598       -0.88762
C         -2.72579       -1.77400       -0.95000
C         -2.09597       -2.21295       -2.25783
O         -2.53710       -1.90239       -3.35011
O         -2.00958       -2.27839        0.15431
O         -4.90084       -1.71186       -2.06821
O         -3.42079       -4.36343       -1.40391
O         -6.00694       -4.21152       -2.31263
O         -8.12573       -4.04112       -0.41184
H         -6.70558       -3.39778        0.87365
H         -6.89905       -2.37335       -0.55995
H         -5.80897       -5.20896       -0.57648
H         -4.13061       -3.81705        0.42062
H         -4.66338       -1.59656       -0.04759
H         -2.63776       -0.68702       -0.90997
H         -1.17346       -2.80597       -2.15931
H         -1.94862       -3.23393        0.03893
H         -4.23118       -1.61981       -2.76978
H         -3.89021       -4.62427       -2.20987
H         -5.88471       -3.29229       -2.60238
H         -8.17828       -4.21323       -1.35832
