24
-686.52491236
C          0.61276       -2.29351        2.91718
C          1.40465       -1.61998        1.81198
C          1.27873       -0.10566        1.88700
C          1.77182        0.60005        0.62584
C          1.74522       -0.30314       -0.61412
C          0.59503       -1.28376       -0.47736
O          0.89975       -2.17844        0.58160
O         -0.63727       -0.64440       -0.30640
O          2.96608       -1.00018       -0.76518
O          0.88878        1.71989        0.45599
O          2.01765        0.28649        3.03592
O         -0.76094       -1.96957        2.83430
H          0.96900       -1.94719        3.88370
H          0.77267       -3.37218        2.84447
H          2.46272       -1.88062        1.91200
H          0.22323        0.13567        2.01776
H          2.80045        0.92392        0.78692
H          1.60430        0.31593       -1.50157
H          0.51414       -1.93404       -1.34559
H         -0.48607        0.27334       -0.04116
H          2.83999       -1.86780       -0.36404
H          1.25061        2.28949       -0.23096
H          1.67712        1.13881        3.32127
H         -1.02761       -2.14713        1.92416
