45
-1296.698641
C         -5.55489        0.88121        0.13281
C         -5.68095        0.44353        1.58210
C         -4.86610        1.30596        2.54331
C         -4.69866        0.54569        3.84146
C         -3.85135       -0.69470        3.60874
C         -4.02393       -1.15063        2.16059
O         -5.35393       -0.94964        1.71006
O         -3.74937       -2.51691        2.08659
C         -3.02774       -2.94294        0.93814
C         -3.90607       -3.85853        0.09241
O         -3.15541       -4.38444       -1.01424
C         -2.00702       -5.10925       -0.64810
C         -1.06646       -4.26031        0.19020
C         -1.79238       -3.68328        1.39393
O         -0.96005       -2.77182        2.08546
O          0.08157       -4.98831        0.59022
O         -2.30840       -6.24758        0.12739
C         -5.07681       -3.13365       -0.53050
O         -4.64296       -2.06998       -1.37573
O         -4.25143       -1.67551        4.54592
O         -4.12398        1.44705        4.78164
O         -5.59863        2.50201        2.73512
O         -4.27207        0.59570       -0.39860
H         -5.71554        1.95831        0.08103
H         -6.33143        0.38823       -0.45642
H         -6.72220        0.54244        1.89512
H         -3.88068        1.53274        2.12074
H         -5.68554        0.21813        4.17988
H         -2.79703       -0.43221        3.74483
H         -3.33604       -0.59300        1.52139
H         -2.72384       -2.07903        0.34251
H         -4.27785       -4.67380        0.71867
H         -1.53764       -5.39299       -1.58962
H         -0.70901       -3.43457       -0.42457
H         -2.10311       -4.50171        2.05367
H         -0.10895       -3.21224        2.19462
H         -0.24349       -5.83580        0.91805
H         -2.73971       -6.89387       -0.44004
H         -5.68285       -2.68304        0.24889
H         -5.67477       -3.84813       -1.09877
H         -4.05984       -2.46020       -2.03604
H         -3.88270       -2.50943        4.23157
H         -4.14880        1.02236        5.64417
H         -5.21121        2.92114        3.51272
H         -4.32254       -0.30718       -0.74661
