45
-1296.697680
C          0.04060        4.63627        3.67814
C          0.16371        3.21499        4.16876
C          1.50652        2.56362        3.89447
C          1.45652        1.16272        4.46320
C          0.31761        0.38033        3.83964
C         -0.99147        1.15117        3.95280
O         -0.86892        2.47328        3.50051
O         -1.38208        1.09141        5.30460
C         -2.78541        1.29733        5.46520
C         -2.98334        2.03534        6.78230
O         -4.32878        1.82501        7.22218
C         -4.61070        0.50360        7.59854
C         -3.81995       -0.55185        6.81262
C         -3.54195       -0.03388        5.41270
O         -4.75807        0.19164        4.70887
O         -2.56556       -0.83980        7.39631
O         -4.29994        0.27263        8.95686
C         -2.82510        3.53309        6.62866
O         -3.67735        4.06140        5.62575
O          0.20201       -0.90952        4.41746
O          2.70848        0.54551        4.20387
O          2.51338        3.33401        4.52476
O         -1.12330        5.26312        4.18611
H          0.05566        4.63465        2.58391
H          0.88955        5.21043        4.03899
H         -0.00882        3.20233        5.24793
H          1.67384        2.50828        2.81240
H          1.28888        1.24323        5.54358
H          0.53925        0.23120        2.78298
H         -1.75577        0.69659        3.31880
H         -3.16328        1.92429        4.65649
H         -2.27211        1.66036        7.52081
H         -5.67825        0.38317        7.42148
H         -4.43567       -1.45668        6.76329
H         -2.90822       -0.75648        4.89199
H         -5.15945       -0.66361        4.52729
H         -2.69687       -0.79795        8.35211
H         -4.76098        0.93825        9.47683
H         -1.80984        3.77193        6.32405
H         -3.01612        4.00406        7.59586
H         -4.57338        3.78691        5.84817
H         -0.25803       -0.77689        5.25846
H          2.62579       -0.37376        4.48146
H          3.29973        2.77688        4.55079
H         -1.88462        4.71558        3.96302
