45
-1296.697236
C          9.18261       -6.61665        0.81249
C          8.62410       -6.39698       -0.57555
C          9.55105       -5.58603       -1.45968
C          8.85732       -5.35224       -2.78155
C          7.54544       -4.62539       -2.55612
C          6.67977       -5.38438       -1.55471
O          7.39155       -5.68001       -0.38131
O          6.20320       -6.51162       -2.25740
C          5.32871       -7.42673       -1.57681
C          4.27499       -6.72792       -0.72155
O          3.44265       -7.69723       -0.07924
C          4.14141       -8.59072        0.75034
C          5.14436       -9.38978       -0.06038
C          6.10031       -8.44733       -0.76761
O          6.94508       -9.16477       -1.65244
O          5.86457      -10.31745        0.73135
O          4.87081       -7.93528        1.76958
C          3.34622       -5.84353       -1.53867
O          2.80321       -6.48898       -2.67651
O          6.86304       -4.41149       -3.78080
O          9.73493       -4.58364       -3.59065
O         10.74994       -6.31968       -1.62363
O          8.29668       -7.37134        1.62807
H          9.40126       -5.64544        1.26598
H         10.10674       -7.18243        0.73835
H          8.42639       -7.35697       -1.05790
H          9.74914       -4.61528       -0.98877
H          8.65960       -6.32577       -3.24367
H          7.75935       -3.63918       -2.14473
H          5.85532       -4.75467       -1.22215
H          4.81926       -7.96242       -2.37858
H          4.76054       -6.11809        0.04544
H          3.37895       -9.24041        1.17772
H          4.59594       -9.97405       -0.79841
H          6.69001       -7.94479       -0.00344
H          7.27504       -9.91798       -1.14683
H          6.26396       -9.80873        1.44866
H          4.24456       -7.62495        2.43069
H          3.86370       -4.92485       -1.81985
H          2.50519       -5.57787       -0.90139
H          3.43947       -6.41030       -3.39117
H          6.48056       -5.26837       -4.00828
H          9.23985       -4.33727       -4.37996
H         11.21451       -5.91419       -2.36471
H          7.48172       -6.86285        1.69937
