45
-1296.695647
C          9.05522       -1.24870       -6.09176
C          9.05737       -0.14354       -5.06212
C         10.45188        0.26337       -4.62687
C         10.32414        1.32115       -3.55611
C          9.50218        0.79584       -2.39386
C          8.15909        0.27732       -2.89538
O          8.32390       -0.65702       -3.93872
O          7.43861        1.41373       -3.28107
C          6.02731        1.23874       -3.42017
C          5.64021        0.92457       -4.87794
O          5.12425        2.07009       -5.56952
C          5.86881        3.24618       -5.35990
C          5.78646        3.70210       -3.88693
C          5.40740        2.54369       -2.94739
O          4.00809        2.44243       -2.79579
O          6.96765        4.36083       -3.47505
O          7.22803        3.06506       -5.69414
C          4.55339       -0.12164       -5.01779
O          3.30046        0.33573       -4.51333
O          9.33779        1.79086       -1.40029
O         11.63514        1.67270       -3.14390
O         11.13378        0.75804       -5.76564
O          7.73014       -1.61049       -6.45385
H          9.60411       -2.10882       -5.69756
H          9.55190       -0.90224       -6.99316
H          8.54893        0.73760       -5.46278
H         10.97158       -0.60624       -4.20706
H          9.81395        2.18749       -3.99316
H         10.04036       -0.02848       -1.92637
H          7.62499       -0.26213       -2.10937
H          5.70269        0.42079       -2.76838
H          6.52584        0.55398       -5.39109
H          5.41197        3.98148       -6.01968
H          4.96428        4.41256       -3.80721
H          5.83567        2.78872       -1.97486
H          3.68525        1.68541       -3.31010
H          7.66783        4.03042       -4.05014
H          7.30197        3.04865       -6.65319
H          4.81910       -1.00756       -4.44448
H          4.46169       -0.40121       -6.06779
H          2.99710        1.00882       -5.13290
H          8.65644        2.38957       -1.73662
H         11.53768        2.25205       -2.37942
H         11.91730        1.21116       -5.43333
H          7.31287       -1.91685       -5.64274
