45
-1296.693029
C          3.76679        1.59146        3.99557
C          3.90941        0.78716        2.72410
C          2.56303        0.39793        2.10096
C          2.51412       -1.09147        1.86585
C          2.81323       -1.77506        3.18567
C          4.27922       -1.49624        3.57022
O          4.78366       -0.33351        2.90682
O          5.03468       -2.57007        3.09796
C          6.26339       -2.85185        3.78102
C          6.03970       -3.46912        5.16106
O          7.31276       -3.83577        5.70647
C          8.19625       -2.76456        5.88877
C          8.45607       -2.04899        4.56991
C          7.15198       -1.63153        3.92412
O          7.48992       -1.03086        2.68853
O          9.25617       -0.91363        4.86106
O          7.65927       -1.87213        6.83550
C          5.23552       -4.75025        5.11879
O          5.82233       -5.71988        4.26900
O          2.53624       -3.16165        3.11689
O          1.21042       -1.40551        1.41178
O          2.42288        1.13984        0.89891
O          3.08740        0.78747        4.95514
H          3.20216        2.49894        3.76375
H          4.75988        1.87038        4.35430
H          4.42160        1.40821        1.98991
H          1.74863        0.63989        2.79023
H          3.26414       -1.37230        1.11901
H          2.15626       -1.36013        3.94826
H          4.39219       -1.37149        4.64709
H          6.75277       -3.58847        3.14590
H          5.54984       -2.75781        5.83096
H          9.11551       -3.21604        6.26424
H          8.98023       -2.73272        3.89629
H          6.66451       -0.90293        4.57952
H          6.66362       -0.64678        2.36024
H          9.23134       -0.36502        4.06756
H          8.12419       -1.03668        6.69311
H          4.23994       -4.54726        4.73200
H          5.13889       -5.12473        6.14058
H          6.70661       -5.88050        4.61385
H          3.35400       -3.57077        2.79949
H          1.10484       -2.35533        1.54688
H          1.60940        0.82975        0.48465
H          2.96950        1.30460        5.75609
