30
-819.15387671
C          0.88604       -2.69557       -4.57726
C          0.67939       -3.53008       -3.31586
C         -0.29834       -2.87791       -2.34721
C          0.32864       -1.68539       -1.59288
C          1.84648       -1.79462       -1.51843
C          2.28177       -3.26288       -1.51765
O          1.97489       -3.82380       -2.76024
N          2.42408       -0.96540       -0.46914
C          2.23954       -1.13372        0.86110
O          1.71995       -2.14032        1.34923
C          2.70875       -0.00178        1.73626
O          0.08801       -0.43062       -2.22742
O         -0.87904       -3.81432       -1.46278
O         -0.30593       -2.59957       -5.34305
H          1.15437       -1.67232       -4.32493
H          1.70481       -3.13715       -5.14868
H          0.24752       -4.49153       -3.60410
H         -1.11605       -2.48940       -2.95556
H         -0.09049       -1.69947       -0.58467
H          2.24293       -1.38653       -2.44724
H          3.36878       -3.32792       -1.43634
H          2.77099       -0.06760       -0.75956
H          3.25383       -0.41755        2.57845
H          3.33520        0.71321        1.20960
H          1.83239        0.51272        2.12623
H         -0.86349       -0.28801       -2.24816
H         -0.13421       -4.18142       -0.95853
H         -0.50968       -3.47641       -5.67992
O          1.67037       -4.02433       -0.50317
H          1.65473       -3.45664        0.30130
