45
-1296.690005
C          0.93152        1.65768        9.51578
C         -0.07663        0.54060        9.75092
C          0.50859       -0.82170       10.11681
C          1.08611       -1.55282        8.90049
C          0.09527       -1.56027        7.74599
C         -0.39583       -0.14701        7.47368
O         -0.98661        0.39568        8.64121
O         -1.38768       -0.26555        6.50571
C         -1.76316        0.82862        5.64403
C         -0.74388        1.95078        5.54793
O         -0.82627        2.84143        6.66684
C         -2.11149        3.49144        6.79373
C         -3.19042        2.44745        7.06352
C         -3.16242        1.33128        6.01609
O         -3.70685        1.81111        4.78730
O         -3.10829        1.99376        8.39251
O         -2.01402        4.38995        7.83010
C         -0.80943        2.72284        4.23315
O          0.17425        3.73926        4.22716
O         -0.98764       -2.40138        8.11032
O          2.25145       -0.91702        8.38826
O         -0.45480       -1.63376       10.75970
O          0.28535        2.90180        9.34776
H          1.59724        1.43241        8.68262
H          1.54945        1.73495       10.41147
H         -0.72052        0.84758       10.57402
H          1.31089       -0.66567       10.84234
H          1.28530       -2.58729        9.18869
H          0.59975       -1.92832        6.84946
H          0.43888        0.47393        7.14842
H         -1.86314        0.37331        4.65778
H          0.26430        1.54080        5.59484
H         -2.31749        4.05021        5.88094
H         -4.15578        2.95286        6.97919
H         -3.72952        0.47925        6.39830
H         -4.61752        2.07521        4.95068
H         -2.32540        1.41261        8.48246
H         -2.18331        3.88186        8.63890
H         -1.80627        3.12128        4.04839
H         -0.57084        2.03975        3.41943
H          0.13648        4.16396        5.09188
H         -1.71017       -2.18714        7.50690
H          2.95218       -1.00667        9.04064
H         -1.04075       -1.95860       10.06144
H         -0.01567        2.95482        8.43001
