24
-686.52765691
C          0.53083       -1.32209        3.68369
C          1.18561       -1.05972        2.34352
C          1.40481        0.44083        2.10996
C          1.19874        0.81488        0.63769
C          1.62803       -0.34355       -0.23821
C          0.72765       -1.56100        0.03318
O          0.29442       -1.61958        1.38296
O         -0.39950       -1.55293       -0.77656
O          2.99352       -0.58677        0.09704
O         -0.16667        1.05933        0.30959
O          2.68184        0.83610        2.57909
O         -0.77256       -0.76644        3.72729
H          1.11203       -0.84221        4.46859
H          0.50498       -2.39817        3.86945
H          2.15754       -1.56050        2.30584
H          0.68251        0.99976        2.70703
H          1.81433        1.69173        0.42597
H          1.52182       -0.08969       -1.29367
H          1.27770       -2.47639       -0.20805
H         -0.84286       -0.71514       -0.58427
H          3.34195       -1.24736       -0.50828
H         -0.54917        1.59847        1.00844
H          3.32213        0.40067        2.00348
H         -1.23409       -1.13302        2.96473
