24
-686.52404897
C         -0.38652        1.09087       -2.51189
C         -0.63121        1.00147       -1.01710
C          0.40896        1.77320       -0.20238
C          1.20759        0.82291        0.65883
C          1.67220       -0.32304       -0.21832
C          0.44271       -1.14921       -0.61715
O         -0.74639       -0.37728       -0.62480
O          0.28874       -2.12355        0.37935
O          2.65439       -1.10903        0.42842
O          2.30480        1.54334        1.18854
O         -0.26835        2.75403        0.56425
O         -1.36564        0.37613       -3.23796
H          0.62008        0.72713       -2.74982
H         -0.44194        2.13448       -2.81850
H         -1.61066        1.41712       -0.79068
H          1.12030        2.25665       -0.88342
H          0.56856        0.43806        1.45933
H          2.15040        0.08846       -1.10799
H          0.57750       -1.62643       -1.59288
H         -0.55968       -2.55568        0.24085
H          2.17265       -1.78508        0.92226
H          2.93894        0.87993        1.48695
H          0.40042        3.18767        1.10615
H         -1.55987       -0.41004       -2.71627
