30
-819.15360045
C         -0.77525       -5.03663       -2.01695
C          0.18279       -4.08906       -1.30924
C         -0.40037       -2.67356       -1.12000
C          0.30641       -1.71902       -2.07832
C          1.80458       -1.68837       -1.77410
C          2.30038       -3.12342       -1.48375
O          1.40011       -4.05174       -2.06380
N          2.12717       -0.76871       -0.70553
C          3.41763       -0.41529       -0.49038
O          4.33072       -0.81298       -1.21660
C          3.66740        0.51815        0.66364
O          0.09147       -2.12723       -3.42674
O         -0.16101       -2.14514        0.18906
O         -1.57927       -4.44529       -3.02037
H         -0.18063       -5.86082       -2.41814
H         -1.46319       -5.44497       -1.27637
H          0.41395       -4.49599       -0.31738
H         -1.46772       -2.68087       -1.33982
H         -0.11588       -0.72068       -1.97740
H          2.31294       -1.34223       -2.67572
H          2.30642       -3.28476       -0.39469
H          1.44153       -0.62750        0.01841
H          4.04938        1.45671        0.26815
H          2.77350        0.71519        1.24954
H          4.43726        0.08841        1.29899
H          0.75023       -2.81761       -3.59040
H         -0.75470       -2.58387        0.80433
H         -1.09082       -3.71680       -3.42619
O          3.53341       -3.38340       -2.05611
H          4.05556       -2.57098       -1.92782
