40
-1161.23015479
O          6.64277        4.44869        1.39907
C          7.15835        5.37228        2.23238
O          8.33633        5.58102        2.36067
C          6.03953        6.19045        2.90060
O          5.58715        7.00685        1.84283
C          4.85874        5.35399        3.43654
C          4.82363        4.99607        4.93048
H          5.06315        3.95171        5.08851
O          3.51001        5.26068        5.47448
C          5.74808        5.87255        5.77476
H          5.24718        6.00390        6.73246
N          7.03652        5.25783        6.05346
C          7.69644        4.36765        5.25383
C          9.15728        4.19266        5.57434
O          7.16191        3.75684        4.33661
C          5.97653        7.22106        5.08401
H          6.68232        7.80775        5.67456
O          6.68109        6.97368        3.87967
C          4.70339        8.08311        4.88719
H          3.83279        7.46214        4.70056
O          4.82928        8.91369        3.73637
C          4.40396        8.97932        6.08313
H          3.53354        9.57505        5.79857
O          5.55379        9.81545        6.24084
C          4.08980        8.25594        7.38587
O          2.94994        7.43199        7.29405
H          7.40564        4.01601        0.99018
H          5.23266        7.79988        2.28295
H          4.78972        4.45621        2.82860
H          3.97301        5.95170        3.22200
H          2.87051        4.74451        4.97335
H          7.61699        5.76600        6.70080
H          9.42445        4.52944        6.57328
H          9.71303        4.77323        4.83787
H          9.42167        3.14683        5.45302
H          5.54418        9.53422        3.92833
H          5.28958       10.60344        6.72316
H          3.86619        9.00699        8.14364
H          4.97799        7.71947        7.73261
H          3.13855        6.67986        6.71317
