24
-686.51909809
C          6.20997       -1.11408       -2.93946
C          5.49779       -1.27291       -1.58471
C          4.32049       -0.31222       -1.33737
C          4.65940        1.12724       -0.91579
C          4.78847        1.28020        0.61043
C          5.53489        2.54016        0.99609
O          5.70062        3.49782        0.26267
O          5.32925        0.18049        1.31400
O          5.81741        1.55509       -1.62719
O          3.38215       -0.85904       -0.42445
O          6.49594       -1.24131       -0.56207
O          7.35753       -0.28878       -2.83126
H          6.57665       -2.08633       -3.25846
H          5.51386       -0.74198       -3.69315
H          5.03164       -2.25956       -1.55945
H          3.78841       -0.26123       -2.28839
H          3.81529        1.75573       -1.20948
H          3.77211        1.42164        0.99396
H          5.92445        2.53128        2.02632
H          5.95103       -0.29161        0.71688
H          5.93411        2.48826       -1.39626
H          3.83171       -0.90786        0.43158
H          7.27106       -0.85796       -1.01136
H          7.01827        0.58465       -2.57879
