45
-1296.697973
C          5.91305       -5.24511       -0.08151
C          6.92218       -4.63518        0.84669
C          6.56961       -4.83735        2.32753
C          6.97912       -3.58812        3.11773
C          8.31455       -3.07113        2.60067
C          8.15280       -2.66128        1.11834
O          6.99028       -3.23439        0.53736
O          9.29834       -3.06830        0.42681
C          9.72735       -2.21633       -0.63563
C         10.34585       -0.93144       -0.08566
O         10.83710       -0.13477       -1.16149
C          9.84931        0.24932       -2.07746
C          9.19688       -0.97308       -2.70163
C          8.63279       -1.89902       -1.64104
O          8.16233       -3.02926       -2.34530
O          8.16222       -0.50772       -3.55367
O          8.88869        1.04501       -1.42416
C         11.55848       -1.17818        0.79287
O         11.13291       -1.72969        2.03888
O          9.25760       -4.11729        2.76423
O          5.99207       -2.56975        3.05520
O          7.16280       -6.02233        2.82320
O          6.43649       -5.14071       -1.40268
H          4.96718       -4.70505        0.01132
H          5.76241       -6.28748        0.20694
H          7.89903       -5.08362        0.65368
H          5.49214       -4.95765        2.45138
H          7.07820       -3.86790        4.16451
H          8.61923       -2.18816        3.16365
H          7.99434       -1.58700        1.04463
H         10.50572       -2.78699       -1.14602
H          9.60933       -0.36363        0.48722
H         10.37782        0.82814       -2.83583
H          9.95495       -1.51830       -3.27131
H          7.80948       -1.38155       -1.14055
H          7.58557       -3.56407       -1.77591
H          7.63939       -1.28901       -3.77252
H          8.10709        1.02430       -1.99230
H         12.05174       -0.21640        0.93641
H         12.25042       -1.85225        0.28165
H         11.83414       -1.57857        2.67770
H         10.03399       -3.83888        2.25787
H          5.81863       -2.42687        2.11722
H          8.11083       -5.83502        2.86162
H          5.77417       -5.45077       -2.02534
