45
-1296.692200
C         11.16478       -1.07208        4.33569
C          9.89487       -1.10217        5.16533
C         10.17856       -1.20469        6.65266
C          8.86954       -1.19872        7.40047
C          8.03011       -2.36660        6.91954
C          7.87504       -2.31134        5.40234
O          9.11472       -2.23413        4.76028
O          7.08864       -1.16496        5.07843
C          5.76742       -1.42434        4.63846
C          5.65476       -1.44379        3.11990
O          4.31781       -1.83158        2.76119
C          3.26923       -1.37537        3.59651
C          3.62742       -0.12237        4.37437
C          4.89425       -0.32624        5.20598
O          4.61737       -0.69863        6.55483
O          3.87061        0.95055        3.48653
O          2.18173       -1.02921        2.77953
C          6.56051       -2.46881        2.47254
O          6.29378       -3.77869        2.94774
O          6.78390       -2.42063        7.58902
O          9.15824       -1.30429        8.78737
O         11.01634       -0.11740        7.01785
O         12.13389       -2.02571        4.73422
H         11.57178       -0.06068        4.37361
H         10.90255       -1.30325        3.30533
H          9.33374       -0.18430        4.96465
H         10.67927       -2.15894        6.84275
H          8.34333       -0.26018        7.19278
H          8.55006       -3.29139        7.17237
H          7.39185       -3.21087        5.02412
H          5.41680       -2.38553        5.02571
H          5.87827       -0.44987        2.72246
H          2.98919       -2.17882        4.28586
H          2.79181        0.09832        5.04622
H          5.45897        0.60754        5.16333
H          4.25862        0.06686        7.01501
H          3.20126        0.87860        2.79390
H          2.07278       -1.73288        2.13154
H          7.59758       -2.24701        2.71421
H          6.43306       -2.41022        1.38907
H          5.36313       -3.94359        2.76393
H          6.22229       -1.70208        7.25714
H          8.32713       -1.53255        9.21979
H         11.00601       -0.08421        7.98146
H         12.55462       -1.67696        5.52530
