24
-686.52267140
C         -0.46312       -1.21887        3.11010
C          0.88157       -0.99479        2.43766
C          1.19575        0.47057        2.06547
C          1.06189        0.82455        0.58102
C          1.54898       -0.33178       -0.28799
C          0.77701       -1.59842        0.06356
O          1.10872       -1.96491        1.38938
O         -0.59341       -1.46997       -0.17906
O          2.93583       -0.54337       -0.03819
O         -0.30202        1.14693        0.27876
O          2.50890        0.82171        2.49574
O         -1.59598       -0.84679        2.35765
H         -0.48063       -0.61459        4.01738
H         -0.50823       -2.27124        3.40467
H          1.62901       -1.25134        3.18963
H          0.51310        1.11244        2.61963
H          1.69814        1.69465        0.41659
H          1.41561       -0.09872       -1.34508
H          1.13523       -2.43911       -0.52816
H         -0.81011       -0.52470       -0.08055
H          2.98310       -1.34130        0.50563
H         -0.30404        1.73454       -0.48309
H          3.11469        0.49283        1.82037
H         -1.58601       -1.39572        1.56367
