24
-686.52571355
C         -1.69615        0.16885       -1.55074
C         -1.29751        0.25645       -0.08080
C         -0.31856        1.41231        0.17559
C          1.06020        0.86940        0.51385
C          1.37723       -0.26570       -0.42851
C          0.41667       -1.41655       -0.13228
O         -0.78636       -0.98508        0.42358
O          0.10918       -2.17285       -1.29434
O          2.68827       -0.77095       -0.26018
O          2.07367        1.84818        0.35409
O         -0.75341        2.33243        1.17136
O         -2.52582       -0.93453       -1.81516
H         -0.80666        0.15845       -2.18660
H         -2.26398        1.06778       -1.79106
H         -2.20110        0.41782        0.50479
H         -0.21909        2.01423       -0.72969
H          1.05581        0.48728        1.54114
H          1.23480        0.08177       -1.45678
H          0.88179       -2.05740        0.61826
H          0.93403       -2.53415       -1.63771
H          3.27452       -0.00543       -0.25551
H          1.82092        2.60912        0.88775
H         -0.94750        1.82448        1.96620
H         -1.97986       -1.71531       -1.66332
