24
-686.52722918
C         -0.53752        1.91458       -1.86230
C         -0.83632        0.81890       -0.85478
C         -0.32110        1.09568        0.55782
C          1.18182        0.82236        0.73198
C          1.66143       -0.40933       -0.06315
C          0.52131       -1.20076       -0.68642
O         -0.33882       -0.40420       -1.44912
O         -0.14919       -1.88107        0.37120
O          2.51158       -1.26858        0.66913
O          1.96678        1.96170        0.43573
O         -1.09947        0.41539        1.53009
O          0.85380        2.02603       -2.15101
H         -0.85415        2.87826       -1.46924
H         -1.09317        1.71399       -2.77954
H         -1.92138        0.72243       -0.77490
H         -0.47061        2.15601        0.75914
H          1.33392        0.62120        1.79089
H          2.26653       -0.03571       -0.88809
H          0.91868       -1.93593       -1.38504
H         -0.74010       -2.53086       -0.02316
H          1.95154       -1.74271        1.29309
H          1.79744        2.17308       -0.49504
H         -0.96629       -0.52905        1.37195
H          1.09580        1.21430       -2.60920
