45
-1296.698175
C         -2.64666       -1.21536        5.13023
C         -1.20158       -1.57630        4.87697
C         -0.38356       -1.88635        6.12005
C          1.03420       -2.18571        5.67516
C          1.59351       -1.02788        4.87524
C          0.65627       -0.66572        3.73528
O         -0.64048       -0.42076        4.23198
O          0.67048       -1.72773        2.82121
C          0.09207       -1.40154        1.54771
C         -0.39679       -2.71025        0.90953
O         -0.06154       -2.72441       -0.47411
C          1.34722       -2.84983       -0.69401
C          2.12726       -1.80300        0.15112
C          1.15130       -0.74506        0.65556
O          0.54867       -0.04846       -0.41954
O          2.82121       -2.44860        1.21213
O          1.80001       -4.12825       -0.42746
C         -1.90235       -2.90559        0.97591
O         -2.33678       -3.06015        2.31377
O          2.85650       -1.32761        4.31930
O          1.91517       -2.37093        6.77140
O         -0.83926       -3.05611        6.79211
O         -3.28682       -0.84826        3.91006
H         -2.71040       -0.39740        5.85368
H         -3.18533       -2.07770        5.51493
H         -1.16340       -2.42951        4.19854
H         -0.37554       -1.02261        6.79265
H          1.01008       -3.07957        5.04386
H          1.65297       -0.15659        5.53550
H          0.96435        0.26793        3.26163
H         -0.73530       -0.70129        1.68812
H          0.08932       -3.54361        1.42415
H          1.44767       -2.64767       -1.75766
H          2.87072       -1.32894       -0.48785
H          1.70153       -0.00326        1.23436
H          0.02155       -0.71000       -0.88761
H          2.39079       -2.23783        2.05581
H          2.32829       -4.04352        0.38403
H         -2.14714       -3.81056        0.42189
H         -2.39534       -2.06477        0.48135
H         -2.76958       -2.25261        2.62319
H          3.39518       -1.68144        5.03641
H          1.56316       -3.10510        7.28626
H         -1.56672       -2.81754        7.37227
H         -2.78651       -0.09346        3.57866
