45
-1296.688970
C         -0.20262        3.17123        0.22914
C         -1.40801        3.38249        1.13145
C         -1.82917        4.82721        1.39039
C         -0.96585        5.51716        2.44585
C         -0.77993        4.62496        3.67236
C         -0.26920        3.27284        3.21172
O         -1.21190        2.66399        2.36243
O         -0.14644        2.43262        4.32949
C          0.97668        1.53241        4.34183
C          2.22208        2.27637        4.83789
O          3.34532        1.39574        4.91493
C          3.67428        0.76852        3.70168
C          2.49719       -0.03789        3.18974
C          1.27176        0.85088        3.01948
O          0.17133        0.06312        2.60298
O          2.78624       -0.70759        1.97731
O          4.00546        1.68338        2.68252
C          2.06819        2.81353        6.25419
O          1.17808        3.90929        6.34329
O         -2.03251        4.49846        4.33494
O          0.30350        5.79629        1.86341
O         -3.19079        4.88684        1.77798
O          0.07205        1.78297        0.11814
H          0.67157        3.71469        0.59246
H         -0.43513        3.55071       -0.76569
H         -2.26123        2.88293        0.67470
H         -1.74153        5.39201        0.46185
H         -1.48154        6.43280        2.74176
H         -0.03570        5.07515        4.33670
H          0.69240        3.41415        2.71251
H          0.70218        0.76708        5.07042
H          2.44139        3.10796        4.16126
H          4.51761        0.11976        3.93523
H          2.27139       -0.81433        3.92022
H          1.51214        1.59813        2.25602
H          0.54406       -0.59628        2.00123
H          3.13011       -0.03930        1.37088
H          4.86492        2.06488        2.88628
H          3.04115        3.16841        6.58528
H          1.76735        1.99234        6.91203
H          0.33915        3.59781        5.98750
H         -2.04621        3.63155        4.75894
H          0.76114        6.42203        2.43277
H         -3.22030        4.58748        2.69697
H         -0.22026        1.37453        0.94734
