45
-1296.693742
C         -3.91549       -6.34256       -5.21351
C         -4.12423       -5.06203       -4.45289
C         -3.43569       -3.86104       -5.07864
C         -3.74391       -2.65674       -4.21445
C         -3.27898       -2.89250       -2.78869
C         -3.83976       -4.20550       -2.25997
O         -3.61049       -5.27412       -3.13578
O         -5.21208       -3.98051       -2.03522
C         -5.86177       -5.00020       -1.24583
C         -6.89873       -5.73765       -2.09420
O         -8.21330       -5.21297       -1.94001
C         -8.24835       -3.80968       -1.88325
C         -7.60549       -3.32573       -0.56280
C         -6.50822       -4.27636       -0.07565
O         -7.10979       -5.19935        0.82011
O         -7.07892       -2.01268       -0.69669
O         -7.67312       -3.18527       -3.00811
C         -6.96653       -7.22173       -1.76822
O         -5.69760       -7.83035       -1.91208
O         -3.61306       -1.80212       -1.95031
O         -3.08965       -1.53961       -4.79170
O         -3.93532       -3.69282       -6.39123
O         -4.81289       -7.31322       -4.66655
H         -2.87798       -6.66350       -5.09976
H         -4.13221       -6.16082       -6.26556
H         -5.19832       -4.85909       -4.41663
H         -2.35169       -4.02516       -5.08800
H         -4.83002       -2.50312       -4.22552
H         -2.19111       -2.96494       -2.79288
H         -3.35688       -4.48970       -1.32321
H         -5.11169       -5.72159       -0.91722
H         -6.59396       -5.64372       -3.14012
H         -9.30142       -3.54667       -1.91317
H         -8.37791       -3.33513        0.20768
H         -5.75536       -3.66281        0.42625
H         -6.40946       -5.71962        1.22562
H         -7.32702       -1.71885       -1.58184
H         -6.71399       -3.32658       -2.95126
H         -7.72019       -7.67705       -2.41481
H         -7.27778       -7.35665       -0.73547
H         -5.37474       -7.65540       -2.80914
H         -4.52435       -1.94224       -1.65451
H         -3.20919       -0.80240       -4.18186
H         -3.69140       -2.79975       -6.66124
H         -4.72946       -8.12127       -5.17996
