24
-686.52572054
C          0.09609       -0.73861        3.78026
C          0.94923       -0.57339        2.53972
C          0.74098        0.77491        1.86699
C          1.53332        0.86304        0.57107
C          1.71674       -0.50811       -0.08992
C          0.53140       -1.38517        0.26781
O          0.56512       -1.65441        1.66643
O         -0.68242       -0.81833       -0.13727
O          2.92473       -1.12303        0.31749
O          0.84532        1.67781       -0.38286
O          1.16016        1.85082        2.69842
O         -1.27110       -0.49518        3.50841
H          0.40362       -0.02563        4.54288
H          0.25309       -1.74544        4.17411
H          2.00462       -0.67228        2.81394
H         -0.31870        0.87242        1.63451
H          2.52459        1.26267        0.79138
H          1.75995       -0.35610       -1.16757
H          0.60719       -2.37184       -0.18430
H         -0.53171        0.10567       -0.38063
H          2.69990       -1.76480        0.99946
H          0.71053        2.54098        0.02336
H          0.45940        2.01287        3.33737
H         -1.50499       -1.06875        2.76871
