45
-1296.69523637
C         -1.23255        4.76880        5.44894
C         -0.50390        6.04212        5.85140
C          0.80761        6.22670        5.11070
C          1.39449        7.57983        5.44505
C          1.13594        7.94765        6.90810
C          0.85720        6.72522        7.76795
O         -0.20029        5.91038        7.24988
O         -2.20969        5.06414        9.03227
C         -2.16221        6.29046        9.74070
C         -0.99390        6.34477       10.71778
O         -1.01372        7.58949       11.41549
C         -2.16572        7.77283       12.19220
C         -3.42584        7.68702       11.33573
C         -3.44058        6.40636       10.53361
O         -4.59193        6.45552        9.70442
O         -4.53223        7.75129       12.22495
O         -2.19958        6.80627       13.21458
C          0.34836        6.23009       10.03907
O          0.48039        7.21848        9.01132
O          0.02667        8.82410        6.93815
O          2.77761        7.49219        5.12337
O          0.58662        6.07990        3.71522
O         -1.87731        4.89830        4.20109
H         -2.01041        4.56747        6.18383
H         -0.52617        3.93197        5.46465
H         -1.15963        6.90037        5.68754
H          1.49830        5.45245        5.46452
H          0.88825        8.33176        4.83498
H          2.03226        8.42556        7.31572
H          1.75337        6.10050        7.85579
H         -2.08853        7.13455        9.04952
H         -1.08079        5.51488       11.42569
H         -2.06500        8.77385       12.61355
H         -3.43486        8.53339       10.64362
H         -3.50139        5.55189       11.21556
H         -4.52968        5.69562        9.11438
H         -5.30875        7.50101       11.71131
H         -3.12425        6.75256       13.49049
H          0.44686        5.23009        9.61615
H          1.13633        6.39179       10.77424
H         -1.55499        5.15178        8.32201
H         -0.24535        8.87801        7.86380
H          3.14596        8.38072        5.12247
H          1.43607        6.21193        3.28086
H         -1.19360        5.14944        3.56964
