45
-1296.68839723
C         -2.19309       12.48399        4.38669
C         -0.93875       11.94863        5.06371
C          0.33245       12.76791        4.84749
C          0.96248       12.51389        3.47644
C          1.08929       11.02283        3.21283
C         -0.24363       10.32771        3.43996
O         -0.72756       10.56208        4.74649
O         -4.07943        6.77181        4.60570
C         -3.15623        6.89758        3.54185
C         -2.28040        8.12843        3.72900
O         -3.03724        9.35013        3.55077
C         -4.19124        9.33010        2.75060
C         -4.10682        8.30414        1.63862
C         -3.85628        6.89280        2.17851
O         -3.03504        6.15600        1.28004
O         -5.23713        8.36698        0.79067
O         -5.35576        9.02463        3.50777
C         -1.04749        8.14584        2.83653
O          0.01143        8.95504        3.33959
O          2.06991       10.50651        4.10144
O          0.16355       13.01963        2.41157
O          1.27950       12.51943        5.86945
O         -3.33356       11.75488        4.80851
H         -2.09273       12.47063        3.29985
H         -2.34245       13.51883        4.69463
H         -1.12860       11.94143        6.13628
H          0.07375       13.82743        4.92253
H          1.96221       12.95404        3.47170
H          1.38361       10.87021        2.17149
H         -0.96980       10.64362        2.68448
H         -2.52355        6.01233        3.58423
H         -1.94813        8.15313        4.76539
H         -4.28411       10.33592        2.34329
H         -3.25589        8.57554        1.01604
H         -4.81867        6.39502        2.31975
H         -3.48272        6.14180        0.42726
H         -6.01078        8.30334        1.36271
H         -5.55714        9.79507        4.05244
H         -1.30471        8.46556        1.82497
H         -0.62929        7.14314        2.77711
H         -4.69400        7.51495        4.53066
H          1.92265        9.55243        4.13372
H          0.16231       13.97909        2.47349
H          1.67246       11.65934        5.66200
H         -3.12276       10.82867        4.61136
