24
-686.52595446
C         -2.40042        0.33130       -0.39147
C         -1.13719        0.21169        0.44116
C         -0.14383        1.33735        0.13238
C          1.24229        0.89497        0.55189
C          1.66414       -0.33927       -0.23433
C          0.43107       -1.07790       -0.76795
O         -0.57084       -1.08471        0.25561
O          0.72974       -2.37659       -1.10866
O          2.45403       -1.23800        0.53827
O          2.19353        1.91959        0.35881
O         -0.43709        2.50837        0.87514
O         -2.89001        1.66172       -0.20683
H         -3.12692       -0.41121       -0.06082
H         -2.16183        0.14612       -1.44181
H         -1.39115        0.29637        1.49854
H         -0.13810        1.56937       -0.93887
H          1.17984        0.62523        1.61523
H          2.29201       -0.02962       -1.06794
H          0.03413       -0.58392       -1.65815
H          1.45730       -2.63348       -0.52356
H          2.02997       -1.31893        1.39941
H          1.79958        2.71805        0.73041
H         -1.33646        2.76115        0.63160
H         -3.68869        1.77074       -0.72817
