24
-686.53530930
C         -2.31810        0.95026       -0.61169
C         -1.02342        0.41879       -0.02243
C          0.11797        1.41464       -0.14572
C          1.35759        0.83676        0.49356
C          1.67406       -0.49398       -0.14796
C          0.45310       -1.39235       -0.07213
O         -0.65550       -0.78109       -0.69923
O          0.77140       -2.56306       -0.75439
O          2.77837       -1.04172        0.55194
O          2.40410        1.77881        0.31782
O         -0.28273        2.62691        0.47324
O         -2.15400        1.59676       -1.86065
H         -2.77642        1.61864        0.11833
H         -2.98462        0.10688       -0.77878
H         -1.19794        0.20342        1.04091
H          0.31830        1.56881       -1.20959
H          1.16782        0.67796        1.56160
H          1.90711       -0.34231       -1.20583
H          0.20577       -1.59677        0.98000
H          0.01974       -3.16011       -0.68919
H          2.97463       -1.89222        0.14522
H          3.20959        1.36631        0.64813
H          0.51575        3.16066        0.55983
H         -1.80075        2.47151       -1.67488
