45
-1296.705241
C          3.78794       -7.82176        9.61375
C          2.56418       -7.06994        9.15201
C          1.62720       -7.90000        8.29160
C          0.48776       -7.01833        7.82553
C          1.04446       -5.81185        7.09219
C          2.02488       -5.07910        7.99520
O          3.05432       -5.95074        8.40404
O          1.32318       -4.57623        9.10890
C          1.82723       -3.34671        9.65667
C          1.32260       -2.17825        8.80656
O          1.83949       -0.93689        9.27619
C          3.23489       -0.87403        9.34138
C          3.76772       -1.94401       10.28003
C          3.33981       -3.32278        9.81593
O          3.80987       -4.23548       10.78993
O          5.18101       -1.84084       10.27321
O          3.77152       -1.03499        8.04913
C         -0.18765       -1.99183        8.91164
O         -0.94571       -3.13921        8.53851
O          0.02599       -4.98714        6.57140
O         -0.33916       -7.79890        6.97887
O          1.16047       -8.98246        9.07788
O          4.55460       -7.02362       10.51791
H          4.42911       -8.02316        8.75764
H          3.48877       -8.76685       10.06396
H          2.01051       -6.71420       10.02645
H          2.16870       -8.26256        7.40976
H         -0.07402       -6.68765        8.70654
H          1.61367       -6.17422        6.23439
H          2.51558       -4.27961        7.44103
H          1.38723       -3.28513       10.65557
H          1.60885       -2.33571        7.76362
H          3.45711        0.11988        9.73159
H          3.36593       -1.76122       11.28110
H          3.82174       -3.50808        8.85514
H          4.00573       -5.08880       10.36936
H          5.50300       -2.64593       10.69751
H          4.70833       -1.23350        8.17888
H         -0.48899       -1.19026        8.24320
H         -0.42180       -1.68953        9.93492
H         -0.72942       -3.83071        9.17311
H         -0.28285       -4.36643        7.25504
H         -0.93113       -7.17977        6.53476
H          0.42001       -9.36694        8.59479
H          4.21745       -7.17675       11.40478
