40
-1161.23273923
O          5.52821        4.95397        0.91184
C          4.95163        5.13043        2.10137
O          5.54424        5.05136        3.15829
C          3.47229        5.50956        1.98240
O          2.94402        4.66577        1.00523
C          2.73049        5.36885        3.29427
C          3.09138        6.37932        4.38571
H          3.90163        5.98619        4.99403
O          2.00349        6.53878        5.27756
C          3.55972        7.72148        3.79534
H          3.12488        8.52258        4.39446
N          5.00115        7.83541        3.89953
C          5.59870        9.05496        3.84196
C          7.10094        9.05181        3.97721
O          4.95044       10.08664        3.69676
C          3.13485        7.94896        2.34595
H          3.74815        8.76460        1.96826
O          3.44878        6.84077        1.47943
C          1.70309        8.43223        2.16465
H          1.69739        9.47000        2.51524
O          0.79604        7.65213        2.95974
C          1.27914        8.37290        0.68909
H          0.98579        7.33386        0.49129
O          2.30647        8.78322       -0.18436
C          0.08840        9.27996        0.44626
O         -0.52421        9.10014       -0.81346
H          6.46174        4.76440        1.08947
H          1.98589        4.76247        1.03703
H          2.85567        4.35252        3.66111
H          1.67615        5.51520        3.05574
H          1.30253        6.94535        4.75075
H          5.55355        6.99686        3.97420
H          7.51947        8.05010        4.03900
H          7.36777        9.60847        4.87267
H          7.52668        9.57342        3.12374
H         -0.06669        8.07689        2.92012
H          2.96806        8.08063       -0.17953
H          0.43760       10.31099        0.46991
H         -0.64389        9.15379        1.25369
H         -0.72853        8.16694       -0.91452
