45
-1296.694459
C          2.09006        3.64568       -1.15623
C          2.12273        3.84789        0.34082
C          3.49340        4.30094        0.86059
C          3.96739        3.37875        1.95628
C          3.91804        1.96438        1.41284
C          2.44911        1.56325        1.23989
O          1.60769        2.70006        1.02858
O          2.04348        1.00384        2.45932
C          0.80555        0.29088        2.39309
C         -0.01165        0.67681        3.61718
O         -1.24822       -0.04385        3.62358
C         -1.10237       -1.43646        3.63335
C         -0.28597       -1.92223        2.44654
C          1.04873       -1.19798        2.37912
O          1.73712       -1.53748        1.18822
O         -0.09478       -3.32694        2.47486
O         -0.43288       -1.91437        4.78547
C         -0.34156        2.15997        3.64388
O         -0.86701        2.64266        2.42632
O          4.61732        1.06799        2.25698
O          5.29178        3.75268        2.29006
O          3.35509        5.64279        1.30462
O          3.01841        2.61750       -1.48359
H          2.35662        4.59198       -1.63591
H          1.07710        3.36671       -1.45285
H          1.42027        4.64372        0.58830
H          4.23239        4.24479        0.05598
H          3.30864        3.47101        2.82641
H          4.41170        1.94376        0.44299
H          2.30554        0.84722        0.43223
H          0.25563        0.57939        1.49497
H          0.56206        0.43128        4.51703
H         -2.11734       -1.83028        3.58839
H         -0.84212       -1.70186        1.53588
H          1.64733       -1.46204        3.25852
H          1.71751       -2.50033        1.13326
H          0.13846       -3.53977        3.38696
H         -1.01249       -1.78040        5.54161
H          0.56094        2.70402        3.93001
H         -1.09832        2.31787        4.41042
H         -0.10780        2.76761        1.83865
H          3.94814        0.69972        2.84962
H          5.67622        2.98162        2.72589
H          4.20785        5.89072        1.67960
H          2.96503        2.44960       -2.42773
