24
-686.52832226
C          3.00795       -1.53254        2.79202
C          3.41039       -0.72479        1.56720
C          2.90289        0.71723        1.65084
C          1.84851        0.98085        0.59691
C          0.89335       -0.18797        0.58703
C          1.64129       -1.40763        0.06636
O          3.01578       -1.37910        0.34945
O          0.99792       -2.55024        0.60002
O         -0.19534        0.14573       -0.26141
O          1.20641        2.19596        0.93681
O          4.00911        1.59352        1.51965
O          3.46983       -2.86325        2.72664
H          1.92341       -1.49935        2.93323
H          3.47325       -1.07627        3.66498
H          4.49567       -0.69749        1.50528
H          2.41635        0.87124        2.62197
H          2.33486        1.05853       -0.38069
H          0.53739       -0.37700        1.60325
H          1.57493       -1.41350       -1.02219
H          1.22806       -3.30304        0.04659
H         -0.89228       -0.50030       -0.11387
H          0.42807        2.26047        0.37196
H          3.65535        2.48947        1.54730
H          3.09905       -3.22732        1.91697
