45
-1296.69858578
C          5.14537        4.72370        4.28104
C          5.98109        5.70838        5.06193
C          5.21024        6.45059        6.13721
C          6.14928        7.43419        6.79797
C          6.73146        8.38323        5.76819
C          7.36251        7.60170        4.62366
O          6.47518        6.65214        4.09540
O          9.19372        7.99615        0.89321
C          8.84697        6.92882        1.75436
C          9.74778        6.93408        2.99456
O         11.07016        6.50383        2.63967
C         11.09861        5.20938        2.08058
C         10.33875        5.15797        0.76681
C          8.89955        5.60695        0.98798
O          8.19672        4.63190        1.75463
O         10.92867        6.03752       -0.17503
O         12.43332        4.92504        1.77583
C          9.23235        6.17398        4.22429
O          8.53699        7.02234        5.14398
O          7.65544        9.27805        6.36505
O          5.40685        8.13806        7.78246
O          4.72348        5.50134        7.06793
O          5.93892        3.95120        3.40103
H          4.36769        5.27533        3.74302
H          4.66873        4.03614        4.97451
H          6.81780        5.17771        5.52496
H          4.38471        7.00377        5.67363
H          6.96154        6.86733        7.26593
H          5.92544        8.99351        5.36133
H          7.59800        8.27224        3.79484
H          7.81307        7.08428        2.05798
H          9.87917        7.97587        3.28641
H         10.68291        4.48059        2.78521
H         10.35270        4.12619        0.39825
H          8.42362        5.77136        0.01952
H          8.10323        3.83212        1.22629
H         11.88352        5.95558       -0.04933
H         12.96035        5.17985        2.54088
H         10.09767        5.81949        4.78063
H          8.60406        5.32702        3.95622
H         10.00853        7.72881        0.44508
H          8.47708        8.78002        6.45889
H          5.98244        8.83576        8.11548
H          4.44417        6.00391        7.84175
H          6.47429        4.55647        2.87206
