24
-686.52626503
C         -0.92375       -0.12326        3.20936
C          0.13761       -0.32693        2.15098
C          0.99714        0.91847        1.93916
C          1.70068        0.88175        0.57310
C          1.66804       -0.50061       -0.05113
C          0.22412       -1.00836       -0.12290
O         -0.58402       -0.59805        0.95233
O          0.31783       -2.41753       -0.18285
O          2.49195       -1.33874        0.73252
O          1.08052        1.73284       -0.38474
O          1.98680        1.05657        2.93934
O         -0.25418        0.24952        4.41464
H         -1.48919       -1.04680        3.34209
H         -1.60358        0.66381        2.87512
H          0.78625       -1.16015        2.42419
H          0.32360        1.78611        1.92973
H          2.74360        1.15618        0.74237
H          2.04337       -0.43026       -1.07488
H         -0.26765       -0.61721       -1.01175
H         -0.57937       -2.76336       -0.20522
H          2.20850       -2.24146        0.54364
H          1.11259        2.62990       -0.04182
H          1.52916        0.94828        3.78273
H         -0.91552        0.45319        5.07970
