40
-1161.24980974
O          2.15105        7.81857        2.10286
C          2.88077        7.62875        0.99939
O          2.94784        6.58840        0.38654
C          3.67849        8.87153        0.58840
O          4.05467        8.70791       -0.74397
C          2.92493       10.18279        0.73515
C          3.22831       10.85601        2.06474
H          3.01972       10.16899        2.88880
O          2.41942       11.99953        2.23883
C          4.70825       11.20000        2.03287
H          4.85200       11.89432        1.20251
N          5.17853       11.88095        3.22282
C          5.03033       13.22543        3.37610
C          5.57245       13.80626        4.65509
O          4.49583       13.92312        2.51759
C          5.56648        9.94832        1.79448
H          6.03902        9.67380        2.73937
O          4.79282        8.77283        1.48135
C          6.66139       10.21289        0.76124
H          7.22783       11.07055        1.13734
O          6.11290       10.61764       -0.47349
C          7.64514        9.05838        0.58200
H          8.38278        9.37714       -0.15433
O          7.03202        7.89855        0.01875
C          8.38094        8.66562        1.85181
O          9.34844        7.67325        1.57381
H          1.71771        6.97445        2.30030
H          4.09581        7.75256       -0.90886
H          1.85492       10.01324        0.63865
H          3.23652       10.84341       -0.07404
H          2.97035       12.78601        2.10047
H          5.48343       11.33855        4.01344
H          6.06203       13.06968        5.28705
H          4.75076       14.26418        5.20061
H          6.27982       14.59167        4.40097
H          5.65789        9.84879       -0.85022
H          6.24032        7.73473        0.54881
H          7.66566        8.30204        2.59877
H          8.91027        9.52150        2.27065
H          8.90675        7.04254        0.99309
