45
-1296.69514715
C         -2.76323        7.11239       11.44226
C         -2.22345        8.51691       11.20922
C         -2.52677        9.50171       12.33615
C         -3.97159       10.03291       12.29214
C         -4.56881       10.00201       10.89225
C         -3.48461       10.11995        9.84360
O         -2.63014        8.99217        9.90559
O          0.50498       12.64930        8.13890
C         -0.21454       11.74282        7.32395
C         -1.24466       11.03093        8.18080
O         -2.01167       10.16919        7.33374
C         -1.25927        9.10247        6.80723
C         -0.08980        9.62601        5.98428
C          0.69496       10.66916        6.76329
O          1.65510       11.31095        5.93709
O          0.76501        8.57789        5.55583
O         -0.73523        8.28437        7.82485
C         -2.22358       11.93786        8.88663
O         -2.79566       11.33549       10.05288
O         -5.50621       11.04067       10.67731
O         -4.86146        9.25837       13.11297
O         -1.58975       10.56094       12.36871
O         -4.16569        7.00346       11.55984
H         -2.25143        6.70933       12.32394
H         -2.48381        6.49693       10.58863
H         -1.13364        8.43058       11.17081
H         -2.39457        8.96404       13.27735
H         -3.94658       11.06711       12.63542
H         -5.02077        9.02085       10.74172
H         -3.91210       10.10649        8.84391
H         -0.71474       12.26474        6.50024
H         -0.71350       10.45044        8.93839
H         -1.95802        8.54704        6.18038
H         -0.48593       10.09348        5.08309
H          1.18951       10.18090        7.61040
H          2.17431       10.61149        5.52448
H          0.87315        7.99754        6.31962
H         -1.43295        8.23560        8.50035
H         -3.01926       12.22932        8.19718
H         -1.70747       12.82495        9.24359
H          1.30438       12.87564        7.64965
H         -6.29622       10.81506       11.17711
H         -4.67695        9.47111       14.03345
H         -1.76270       11.08414       11.56946
H         -4.45536        7.53327       12.31620
