45
-1296.693991
C         -5.72582        6.30400       -1.35734
C         -6.41591        4.97424       -1.12731
C         -5.96523        4.19131        0.11427
C         -4.91431        3.14784       -0.23615
C         -5.49767        2.17295       -1.27379
C         -6.48914        2.86974       -2.24301
O         -6.19536        4.24282       -2.34556
O         -7.80436        2.64923       -1.77702
C         -8.85767        2.66497       -2.74425
C         -8.73503        1.53644       -3.76911
O         -9.94482        1.49581       -4.53760
C        -10.17654        2.66582       -5.27773
C        -10.25366        3.88011       -4.36909
C         -9.02820        3.98387       -3.46931
O         -9.22902        5.02542       -2.52854
O        -10.43819        5.08130       -5.09817
O         -9.15312        2.94038       -6.21053
C         -8.55533        0.15715       -3.14648
O         -7.19854       -0.14245       -2.90880
O         -6.07242        1.02894       -0.65403
O         -3.68618        3.69615       -0.65454
O         -7.06928        3.51841        0.72885
O         -4.35850        6.15695       -1.73130
H         -5.74212        6.89352       -0.44374
H         -6.26925        6.84667       -2.13228
H         -7.48416        5.17721       -1.02481
H         -5.56552        4.88313        0.85658
H         -4.72192        2.55680        0.66029
H         -4.66219        1.81009       -1.86776
H         -6.37380        2.47816       -3.25027
H         -9.75603        2.47920       -2.15133
H         -7.89291        1.70741       -4.44214
H        -11.12775        2.50070       -5.78285
H        -11.12957        3.77003       -3.72997
H         -8.14249        4.18491       -4.08074
H         -9.58551        5.76715       -3.03360
H         -9.81788        5.03923       -5.83659
H         -9.18978        2.27243       -6.90244
H         -8.93141       -0.56626       -3.86850
H         -9.16064        0.07190       -2.23983
H         -6.94213        0.18722       -2.03145
H         -6.64784        1.36407        0.04540
H         -3.83137        4.60111       -0.97642
H         -7.70686        3.33661        0.02308
H         -4.36816        5.72861       -2.59506
