40
-1161.25870697
O          6.40435       -6.94529        7.04859
C          7.10844       -6.48476        8.09419
O          7.83574       -7.16136        8.78033
C          6.88040       -4.98993        8.29823
O          5.49144       -4.78165        8.40971
C          7.62077       -4.44618        9.49536
C          7.27581       -2.97141        9.63801
H          8.02845       -2.47045       10.25028
O          6.00236       -2.91135       10.27679
C          7.22275       -2.26174        8.25819
H          6.17009       -2.17614        7.98346
N          7.80760       -0.93933        8.33140
C          7.21963        0.01456        9.08353
C          7.79637        1.39987        8.97762
O          6.25502       -0.23471        9.81429
C          7.94785       -3.09884        7.20990
H          8.99668       -3.18993        7.52305
O          7.36690       -4.39858        7.10007
C          7.99604       -2.57825        5.76943
H          8.51885       -3.35582        5.20702
O          8.79700       -1.39572        5.72287
C          6.69082       -2.28375        5.02140
H          6.99623       -2.14736        3.98113
O          6.16445       -1.03154        5.45038
C          5.58620       -3.33652        5.05263
O          4.77916       -3.17329        6.20719
H          6.60333       -7.89109        6.98663
H          5.35058       -4.13556        9.13350
H          8.68873       -4.59302        9.34864
H          7.32898       -4.97891       10.39735
H          5.77661       -1.95973       10.26576
H          8.52233       -0.70031        7.66131
H          8.72022        1.42803        8.40570
H          7.97317        1.78315        9.97882
H          7.05883        2.04212        8.50047
H          8.15646       -0.68303        5.58207
H          5.45224       -1.26467        6.06558
H          6.00392       -4.33935        4.98477
H          4.94197       -3.16187        4.19185
H          5.03282       -3.83834        6.86899
