24
-686.53826517
C         -1.41534        2.17673       -1.40974
C         -0.55913        1.30418       -0.51500
C          0.81068        1.91173       -0.22941
C          1.64446        0.89166        0.50958
C          1.72959       -0.39492       -0.27446
C          0.32945       -0.89843       -0.60687
O         -0.41302        0.09507       -1.25797
O         -0.34324       -1.29878        0.56097
O          2.36659       -1.41423        0.48306
O          2.97832        1.33414        0.72029
O          0.75070        3.05000        0.61329
O         -1.58950        3.43719       -0.75784
H         -2.37321        1.68362       -1.57629
H         -0.90719        2.29738       -2.36883
H         -1.07298        1.11880        0.43096
H          1.29710        2.15249       -1.18312
H          1.15551        0.69569        1.46857
H          2.26649       -0.21116       -1.20875
H          0.38271       -1.72066       -1.32158
H          0.33033       -1.70541        1.12209
H          3.15194       -1.01161        0.87128
H          2.91349        2.18929        1.16009
H          0.04151        3.61019        0.26994
H         -2.10306        4.00707       -1.33506
