30
-813.35244686
C         -1.05724       -3.90305        1.19647
C         -0.00379       -3.10507        0.46457
C         -0.41108       -2.73362       -0.95248
C          0.63300       -1.80875       -1.54888
C          2.04145       -2.18448       -1.06478
C          2.07799       -3.64605       -0.66376
O          1.16338       -3.93986        0.39291
N          2.45953       -1.40098        0.07855
C          2.80038       -0.08705       -0.07922
O          2.59337        0.51548       -1.12298
C          3.42742        0.56680        1.12852
O          0.64227       -1.89571       -2.96402
O         -1.66342       -2.06905       -1.01425
O         -1.52757       -5.00203        0.43093
H         -0.64813       -4.23179        2.15443
H         -1.91779       -3.26801        1.39324
H          0.21780       -2.19818        1.03675
H         -0.43946       -3.64968       -1.54707
H          0.42236       -0.78976       -1.21966
H          2.71855       -2.02603       -1.90583
H          1.83097       -4.26550       -1.53041
H          2.87344       -1.91108        0.84257
H          4.44951        0.84284        0.87807
H          2.88223        1.48058        1.34939
H          3.43248       -0.07430        2.00653
H         -0.22629       -1.61045       -3.26560
H         -2.34647       -2.74269       -0.93285
H         -0.75976       -5.55336        0.24974
O          3.36289       -3.93823       -0.19798
H          3.36196       -4.85445        0.09699
