24
-686.52079332
C         -8.41004        3.03894       -0.66016
C         -7.33749        2.27700       -1.41912
C         -7.22867        2.72754       -2.87665
C         -6.28444        1.85009       -3.71195
C         -4.90683        1.52718       -3.10480
C         -3.96197        2.69273       -2.95506
O         -4.24283        3.75190       -2.42440
O         -4.23793        0.59613       -3.93034
O         -6.89918        0.59801       -4.00443
O         -6.92022        4.10327       -2.95069
O         -7.62626        0.87583       -1.35335
O         -9.70519        2.60500       -1.07759
H         -8.34180        2.79508        0.39752
H         -8.27670        4.11035       -0.79401
H         -6.37982        2.44066       -0.92133
H         -8.20512        2.60635       -3.35147
H         -6.13111        2.34859       -4.66950
H         -5.05917        1.10958       -2.10036
H         -2.95187        2.50606       -3.34961
H         -4.93297       -0.00007       -4.24078
H         -7.23375        0.28724       -3.14712
H         -6.00903        4.20253       -2.63241
H         -8.59318        0.83196       -1.30656
H         -9.94872        3.10424       -1.86153
