24
-686.53375019
C         -2.26750        0.97661        1.14723
C         -0.83410        0.49611        1.09183
C          0.13863        1.56284        0.60356
C          1.51612        0.95149        0.52310
C          1.49912       -0.28094       -0.35499
C          0.44877       -1.26005        0.14705
O         -0.81475       -0.59821        0.18021
O          0.33054       -2.38873       -0.63934
O          2.75512       -0.92330       -0.35749
O          2.47088        1.83909       -0.03673
O          0.23123        2.66289        1.50334
O         -2.71022        1.46427       -0.10794
H         -2.35315        1.79951        1.85388
H         -2.89660        0.15642        1.49924
H         -0.52945        0.16611        2.09388
H         -0.16808        1.89701       -0.38905
H          1.82408        0.65609        1.53369
H          1.20975        0.02544       -1.36977
H          0.70326       -1.60664        1.15271
H          0.36207       -2.11739       -1.56199
H          3.40969       -0.22510       -0.47432
H          2.43633        2.64388        0.49193
H         -0.48309        3.27260        1.29843
H         -2.60554        0.73690       -0.73018
