45
-1296.693699
C         -0.57731        0.91245        6.44093
C          0.85135        1.09582        6.92507
C          1.81598        1.37694        5.76881
C          3.10229        0.61336        5.99047
C          2.78444       -0.86803        5.97883
C          1.62322       -1.15820        6.97222
O          1.28824       -0.01499        7.72256
O          2.04041       -2.11510        7.89584
C          1.20617       -3.26019        8.03532
C          0.57467       -3.29086        9.41674
O         -0.24199       -4.46260        9.51681
C          0.50111       -5.66598        9.36404
C          1.14390       -5.70675        7.98464
C          2.03719       -4.49806        7.79642
O          2.52403       -4.54837        6.46349
O          1.84036       -6.92098        7.83290
O          1.50872       -5.78142       10.32529
C         -0.31270       -2.09208        9.65992
O         -1.25801       -1.89825        8.60966
O          3.94437       -1.65011        6.23748
O          3.98368        0.96295        4.93553
O          2.02923        2.77421        5.71005
O         -1.50245        0.76831        7.49035
H         -0.62908        0.07142        5.73901
H         -0.84983        1.80996        5.88457
H          0.89090        1.94465        7.60429
H          1.38513        1.02616        4.82030
H          3.52559        0.89372        6.95967
H          2.46933       -1.13428        4.96903
H          0.74781       -1.52382        6.42858
H          0.41149       -3.22786        7.28810
H          1.35848       -3.30863       10.17890
H         -0.23684       -6.46167        9.45911
H          0.32891       -5.63225        7.25574
H          2.86025       -4.53985        8.51553
H          3.10955       -3.78927        6.33247
H          2.35499       -6.83118        7.02290
H          1.08915       -5.96310       11.17151
H          0.29883       -1.19425        9.67914
H         -0.81746       -2.20770       10.62011
H         -1.86867       -2.64203        8.62403
H          3.98360       -1.75749        7.19638
H          4.76816        0.41205        5.03022
H          2.73490        2.91115        5.06713
H         -1.39106       -0.11231        7.87611
