24
-686.53372297
C         -2.40867        0.20079        1.17165
C         -0.92865       -0.14210        1.14135
C         -0.04907        1.10083        1.00542
C          1.38974        0.68310        0.79653
C          1.48002       -0.27565       -0.36358
C          0.55559       -1.45059       -0.10379
O         -0.77008       -0.98773        0.01299
O          0.55022       -2.35278       -1.16304
O          2.78568       -0.80394       -0.52623
O          2.23224        1.78640        0.50511
O         -0.06405        1.91428        2.16673
O         -2.73485        1.08383        2.24695
H         -2.99502       -0.71679        1.21488
H         -2.66625        0.72584        0.25444
H         -0.64597       -0.66969        2.06358
H         -0.38203        1.66461        0.12578
H          1.73316        0.17428        1.70490
H          1.14098        0.22170       -1.27733
H          0.84863       -1.94730        0.83366
H          1.46051       -2.39874       -1.47875
H          3.38791       -0.05226       -0.54919
H          2.09837        2.42830        1.21132
H         -0.99544        2.06574        2.37856
H         -2.78847        0.56219        3.05234
