24
-686.52186105
C          2.71253        4.72474       -1.04092
C          3.13100        5.20812        0.33161
C          4.63040        5.01944        0.56327
C          5.06639        5.29009        2.00777
C          4.65348        6.66824        2.55712
C          3.19909        6.80696        2.94142
O          2.55008        7.76376        2.55826
O          4.99801        7.69669        1.65052
O          4.64403        4.28111        2.90616
O          5.36106        5.81686       -0.35288
O          2.37233        4.51510        1.33158
O          2.76497        3.29695       -0.97826
H          1.69552        5.06000       -1.25180
H          3.39939        5.12091       -1.78761
H          2.88833        6.26768        0.41366
H          4.88557        3.97952        0.35329
H          6.15638        5.27053        1.99700
H          5.19760        6.78892        3.50389
H          2.77771        6.05603        3.61775
H          4.23554        8.30007        1.66375
H          3.72724        4.09421        2.65853
H          5.36585        6.70815        0.02527
H          2.19562        3.64504        0.94450
H          2.41687        2.94077       -1.79864
