45
-1296.701130
C          6.54376        6.03583       -1.34090
C          6.28506        4.90191       -0.37219
C          7.06300        3.64635       -0.78176
C          6.34910        2.36314       -0.34807
C          5.55755        2.62768        0.91939
C          4.49111        3.68686        0.63123
O          4.87261        4.62325       -0.35591
O          4.21929        4.32153        1.86034
C          2.92528        4.92211        1.92682
C          3.06735        6.36593        2.38410
O          1.77300        6.96733        2.48397
C          0.90798        6.32255        3.37949
C          0.71018        4.86069        3.01065
C          2.04952        4.15360        2.88453
O          1.87515        2.84161        2.37727
O         -0.12951        4.18920        3.93401
O          1.38904        6.32539        4.70945
C          3.89391        7.19669        1.42050
O          3.51662        7.03866        0.06089
O          6.49264        3.04965        1.90196
O          5.48233        1.94829       -1.39606
O          8.38069        3.71437       -0.26535
O          6.23006        7.31748       -0.83793
H          6.01180        5.81781       -2.27300
H          7.61223        6.03968       -1.55130
H          6.60575        5.20796        0.62587
H          7.15851        3.60612       -1.86693
H          7.12320        1.61907       -0.15058
H          5.03549        1.72704        1.25504
H          3.58993        3.21298        0.24807
H          2.45739        4.91263        0.93928
H          3.55942        6.38412        3.36189
H         -0.03274        6.86738        3.30842
H          0.20718        4.81755        2.04501
H          2.54009        4.12583        3.86383
H          1.16116        2.44829        2.89318
H          0.17194        4.46219        4.80933
H          1.34656        7.22822        5.03953
H          4.94776        6.94845        1.56062
H          3.75166        8.24615        1.66856
H          3.82192        6.15290       -0.20130
H          5.97896        3.51609        2.57402
H          5.23826        1.03238       -1.23509
H          8.28737        3.66999        0.69439
H          5.26884        7.39385       -0.75492
