40
-1161.24989964
O          5.55423       -3.56178        0.37741
C          5.58510       -2.52043        1.21267
O          5.55112       -2.60676        2.41938
C          5.66014       -1.17057        0.49070
O          5.88678       -0.19183        1.47406
C          6.76466       -1.10626       -0.55688
C          6.27069       -1.51638       -1.93144
H          5.90554       -2.54648       -1.89385
O          7.37355       -1.39512       -2.80123
C          5.08782       -0.62902       -2.37262
H          5.52363        0.20830       -2.92438
N          4.17874       -1.33289       -3.26514
C          4.53117       -1.72324       -4.51235
C          3.44626       -2.36387       -5.33753
O          5.66620       -1.54897       -4.95841
C          4.28870       -0.11258       -1.17130
H          3.22253       -0.09311       -1.39258
O          4.37428       -1.03454       -0.07749
C          4.66235        1.31127       -0.76179
H          5.73212        1.38562       -0.55651
O          3.94364        1.67536        0.40754
C          4.33388        2.35921       -1.84535
H          5.17724        2.41042       -2.53868
O          4.20897        3.63029       -1.22651
C          3.09169        2.08041       -2.67405
O          1.93377        1.83552       -1.89433
H          5.49121       -4.35751        0.92712
H          5.69649       -0.62678        2.32187
H          7.59617       -1.74726       -0.26860
H          7.15162       -0.08987       -0.60129
H          7.01078       -1.46788       -3.70207
H          3.25027       -1.54013       -2.93721
H          2.52585       -2.52607       -4.78264
H          3.81534       -3.31212       -5.71900
H          3.24083       -1.72065       -6.19045
H          4.35895        1.17560        1.12397
H          4.07235        3.44332       -0.28700
H          3.23748        1.19762       -3.29694
H          2.94806        2.93719       -3.33739
H          1.88592        2.53980       -1.23949
