45
-1296.69524929
C         -2.71230        7.51039        5.99467
C         -1.98948        6.80027        4.87256
C         -2.91587        6.35512        3.74726
C         -2.11606        5.58165        2.72430
C         -1.42687        4.41561        3.39892
C         -0.58153        4.91473        4.55971
O         -1.38073        5.64718        5.46997
O          2.97612        8.91179        3.88135
C          2.29567        7.79227        3.33300
C          2.63606        6.56934        4.19777
O          3.26574        5.51770        3.46840
C          2.68605        5.08405        2.24459
C          2.02870        6.23331        1.47049
C          2.67969        7.53345        1.89747
O          2.20281        8.62269        1.12541
O          2.11622        6.05874        0.06668
O          3.75110        4.63574        1.44410
C          1.44341        6.05943        4.97451
O          0.44988        5.68586        4.02843
O         -0.59845        3.70098        2.50632
O         -2.93788        5.02589        1.70933
O         -3.48971        7.46691        3.06819
O         -3.76475        6.72876        6.53335
H         -3.16060        8.42699        5.61742
H         -1.98395        7.78024        6.76299
H         -1.22330        7.46481        4.46055
H         -3.69278        5.70629        4.15629
H         -1.36417        6.24575        2.28656
H         -2.19975        3.76319        3.81892
H         -0.17841        4.08197        5.14134
H          1.21532        7.97045        3.34482
H          3.39165        6.89365        4.91265
H          1.97785        4.27783        2.43542
H          0.96988        6.26958        1.71729
H          3.76817        7.44896        1.81925
H          2.18470        8.30479        0.21406
H          2.92987        5.56078       -0.08575
H          4.18567        3.91619        1.91052
H          1.07118        6.84123        5.64312
H          1.73253        5.18888        5.56989
H          2.81987        9.64368        3.27354
H         -1.12331        3.56134        1.70925
H         -3.40147        5.76309        1.29752
H         -4.27964        7.73141        3.54789
H         -3.36417        5.90864        6.83952
