30
-819.15548521
C         -1.05789       -4.31646        0.15652
C          0.03452       -3.33843       -0.23388
C         -0.51212       -2.06033       -0.87278
C          0.45050       -1.58883       -1.97353
C          1.89560       -1.82499       -1.52998
C          2.10345       -3.35939       -1.35646
O          0.86556       -4.01813       -1.17013
N          2.13628       -1.04433       -0.33226
C          3.38313       -0.81025        0.13049
O          4.37834       -1.32941       -0.38248
C          3.48786        0.12370        1.30683
O          0.18030       -2.23859       -3.20117
O         -0.63447       -1.08692        0.17468
O         -2.11140       -3.68777        0.86724
H         -1.50244       -4.72009       -0.75175
H         -0.61995       -5.14377        0.71754
H          0.62440       -3.05733        0.64421
H         -1.48512       -2.24959       -1.32866
H          0.29154       -0.52427       -2.14646
H          2.58321       -1.48442       -2.30344
H          2.48247       -3.76566       -2.29611
H          1.33792       -0.67371        0.16194
H          4.05622       -0.36886        2.09141
H          4.04559        1.00484        0.99689
H          2.51857        0.42892        1.69267
H          0.21418       -3.18503       -3.01395
H         -1.35666       -0.49489       -0.05425
H         -1.73141       -3.25069        1.63452
O          2.93529       -3.69051       -0.29123
H          3.67785       -3.06040       -0.31288
