45
-1296.68898587
C          2.97224       -0.74214        9.42155
C          4.31818       -1.40254        9.69231
C          4.88317       -1.28098       11.11414
C          5.66447        0.00867       11.36283
C          6.65475        0.26176       10.22549
C          5.91612        0.22386        8.90168
O          5.30931       -1.05883        8.70390
O          7.15801       -2.35426        4.55981
C          7.04792       -1.65164        5.78466
C          6.98005       -0.14651        5.52881
O          8.25674        0.47194        5.29241
C          9.40336       -0.26191        5.55000
C          9.30426       -1.06106        6.83378
C          8.16523       -2.07513        6.76070
O          7.71713       -2.36769        8.08608
O         10.57415       -1.69020        6.98406
O          9.65992       -1.13861        4.45049
C          6.24485        0.62083        6.60364
O          6.84393        0.38886        7.88311
O          7.66093       -0.73087       10.32153
O          4.72680        1.07729       11.49117
O          5.70829       -2.39406       11.40738
O          2.94764        0.67079        9.42104
H          2.25944       -1.15686       10.14407
H          2.64915       -1.04780        8.42786
H          4.15784       -2.47262        9.55078
H          4.04696       -1.31227       11.81464
H          6.22237       -0.12328       12.29125
H          7.09606        1.25912       10.33077
H          5.14157        0.99245        8.87111
H          6.08915       -1.95390        6.21073
H          6.40960       -0.02070        4.60619
H         10.21103        0.46636        5.62191
H          9.11140       -0.36142        7.64709
H          8.56947       -2.99948        6.34708
H          6.77332       -2.14809        8.15572
H         10.54062       -2.23960        7.77338
H         10.38653       -1.70891        4.73700
H          5.20378        0.29410        6.61672
H          6.28950        1.68779        6.38079
H          8.01134       -2.08699        4.18385
H          7.84804       -1.10264        9.43801
H          5.20156        1.87537       11.74304
H          6.58715       -2.17551       11.06225
H          3.33836        0.97121       10.25370
