24
-686.52902406
C         -2.33492        0.35209        0.43045
C         -0.94558        0.21980        1.02554
C          0.00742        1.28749        0.48935
C          1.41624        0.78219        0.67844
C          1.63073       -0.39221       -0.24668
C          0.41456       -1.32242       -0.23404
O         -0.45438       -1.11330        0.85645
O         -0.24932       -1.15464       -1.46898
O          2.76021       -1.16357        0.12862
O          2.39010        1.76095        0.36201
O         -0.10897        2.49705        1.22236
O         -2.78036        1.67109        0.76304
H         -2.99090       -0.40663        0.86038
H         -2.28124        0.21883       -0.65030
H         -1.01224        0.37529        2.10350
H         -0.17336        1.46818       -0.57591
H          1.53085        0.44502        1.71418
H          1.74546       -0.00440       -1.26127
H          0.76171       -2.34617       -0.10498
H         -0.93611       -1.82808       -1.50931
H          3.50226       -0.55174        0.17900
H          2.11245        2.56822        0.81039
H         -1.03598        2.75914        1.16053
H         -3.62284        1.82601        0.32974
