30
-819.17069938
C         -0.69052       -5.27756       -2.91252
C         -0.23960       -4.08952       -2.08042
C         -0.48793       -2.75957       -2.76535
C          0.01592       -1.62726       -1.89505
C          1.50169       -1.83803       -1.64889
C          1.76270       -3.24208       -1.10866
O          1.17535       -4.23818       -1.89609
N          2.07361       -0.87284       -0.73346
C          2.43059        0.36826       -1.14041
O          2.25977        0.74714       -2.30058
C          3.06160        1.25240       -0.09892
O         -0.27528       -0.39820       -2.53872
O         -1.87839       -2.61505       -3.01214
O         -2.09735       -5.40134       -2.93399
H         -0.27140       -5.18703       -3.92004
H         -0.29424       -6.18643       -2.46453
H         -0.75700       -4.11246       -1.11834
H          0.06981       -2.74965       -3.70996
H         -0.51929       -1.65828       -0.94136
H          2.02545       -1.74372       -2.60206
H          2.83142       -3.45961       -1.13426
H          2.10072       -1.11824        0.24233
H          4.06732        1.50404       -0.42760
H          2.49203        2.17615       -0.03862
H          3.10931        0.78731        0.88211
H          0.56101        0.07831       -2.68266
H         -2.00284       -1.69663       -3.28316
H         -2.44512       -4.53624       -3.18224
O          1.28623       -3.25118        0.22197
H          1.49420       -4.11362        0.59685
