24
-686.52915638
C          1.39948        2.02893       -2.39308
C          0.29667        1.40966       -1.54686
C          0.40666        1.70096       -0.05466
C          1.47948        0.85522        0.64430
C          1.75373       -0.47126       -0.06641
C          0.54921       -0.91743       -0.87000
O          0.16844        0.00169       -1.84262
O         -0.49180       -1.16953        0.08364
O          2.18597       -1.47656        0.83347
O          2.67208        1.64223        0.73390
O         -0.84913        1.56025        0.58761
O          2.71454        1.61374       -2.08590
H          1.29566        3.11727       -2.31923
H          1.22476        1.74472       -3.42866
H         -0.64055        1.86099       -1.87824
H          0.68731        2.74733        0.06659
H          1.10287        0.64782        1.64750
H          2.56085       -0.31884       -0.77812
H          0.77127       -1.84113       -1.40215
H         -1.19495       -1.64142       -0.37481
H          1.40989       -1.73771        1.34226
H          3.34218        1.09656        1.16116
H         -1.06321        0.61765        0.54714
H          2.91058        1.87896       -1.17553
