45
-1296.692737
C         -1.07732       -3.81479        8.13607
C          0.27397       -3.55399        7.50510
C          1.18719       -2.72949        8.39710
C          2.45187       -2.36690        7.65179
C          2.09074       -1.63315        6.37593
C          1.15409       -2.49623        5.54478
O         -0.00701       -2.84486        6.27782
O          1.86010       -3.64907        5.15757
C          1.65030       -4.11634        3.82170
C          2.42025       -3.24200        2.82237
O          1.88574       -3.35146        1.50615
C          1.39907       -4.66692        1.23076
C          0.14141       -4.94474        2.07208
C          0.19750       -4.17310        3.37936
O         -0.65596       -4.81961        4.30097
O         -0.98481       -4.56673        1.29803
O          1.16005       -4.78356       -0.11661
C          3.91634       -3.53230        2.81245
O          4.50590       -3.35306        4.10201
O          3.22737       -1.22440        5.64630
O          3.23281       -1.55293        8.51065
O          1.46762       -3.52512        9.53505
O         -1.78384       -2.61726        8.39949
H         -0.92660       -4.31250        9.09009
H         -1.65177       -4.47803        7.48241
H          0.76107       -4.50562        7.27593
H          0.67024       -1.80837        8.68236
H          2.99053       -3.28890        7.40579
H          1.55658       -0.72060        6.64400
H          0.79500       -1.93808        4.68101
H          2.04523       -5.13635        3.84531
H          2.27653       -2.20088        3.11760
H          2.17777       -5.39002        1.48667
H          0.10500       -6.01242        2.30794
H         -0.15524       -3.16020        3.16104
H         -0.69368       -4.24619        5.08232
H         -1.77217       -4.78116        1.80784
H          0.24564       -4.50457       -0.25835
H          4.40949       -2.82938        2.14704
H          4.10296       -4.54202        2.43878
H          4.19617       -4.06804        4.66672
H          3.63165       -1.99823        5.21537
H          3.93001       -1.16862        7.96631
H          2.14088       -3.05199       10.03662
H         -1.85237       -2.14812        7.56219
