24
-686.52546897
C          3.63620        4.34885       -1.08477
C          2.49766        3.52129       -0.49702
C          1.97564        4.10795        0.80357
C          0.71931        3.38641        1.28944
C          0.41943        3.73938        2.74612
C         -0.93503        3.19473        3.12497
O         -1.79355        3.91964        3.58475
O          0.43468        5.13678        2.96286
O         -0.38549        3.69172        0.45950
O          1.67612        5.48406        0.57557
O          2.95135        2.21883       -0.13769
O          3.18809        5.52294       -1.72874
H          4.36649        4.56319       -0.29712
H          4.13879        3.75106       -1.84537
H          1.68316        3.47531       -1.22485
H          2.76817        4.00185        1.55174
H          0.89071        2.31140        1.22577
H          1.17194        3.25575        3.38093
H         -1.10480        2.12086        2.96394
H         -0.43972        5.34164        3.33556
H         -0.28061        4.61960        0.21123
H          1.34270        5.82354        1.42109
H          3.17429        1.75254       -0.94794
H          2.67846        6.00427       -1.06672
