40
-1161.25060895
O          8.12987        3.29546        8.44567
C          9.30143        3.93219        8.31168
O         10.34462        3.53720        8.78350
C          9.16278        5.15651        7.39510
O          7.91457        5.74547        7.50024
C         10.22187        6.23284        7.63723
C         11.11233        6.39488        6.41441
H         11.94342        7.05999        6.64049
O         10.42256        6.97738        5.30720
C         11.67974        5.03310        6.01219
H         12.29067        5.18265        5.12122
N         12.56316        4.50566        7.02573
C         13.89511        4.80203        7.01947
C         14.68401        4.22943        8.17166
O         14.41241        5.47600        6.13803
C         10.52402        4.05067        5.72956
H         10.67980        3.13843        6.30743
O          9.25127        4.62232        6.06871
C         10.47493        3.66086        4.26057
H         11.47599        3.27472        4.02933
O         10.15604        4.75745        3.41805
C          9.47972        2.56234        3.88291
H          9.75102        2.24069        2.87157
O          8.14370        3.03807        3.89449
C          9.50442        1.34620        4.79384
O          8.90786        1.62347        6.05152
H          8.31658        2.44090        8.86313
H          7.25373        5.04726        7.40852
H         10.83488        5.97698        8.49864
H          9.70484        7.16650        7.84773
H          9.52764        6.61497        5.32201
H         12.15468        4.02935        7.81599
H         14.08446        3.60639        8.83088
H         15.11058        5.05208        8.74112
H         15.50762        3.64539        7.76894
H         10.50153        5.57471        3.80969
H          8.19823        3.96043        3.61276
H         10.53095        1.02644        4.97427
H          8.97624        0.53121        4.29433
H          8.17050        2.21266        5.84150
