40
-1161.25137308
O         10.17124        1.33609        3.93307
C          9.88920        2.46392        3.27484
O         10.63684        3.40939        3.17313
C          8.48120        2.46552        2.67181
O          8.43830        3.49005        1.71778
C          8.07834        1.15745        2.00841
C          7.26109        0.28484        2.94762
H          7.80974        0.12063        3.87944
O          7.01745       -0.96134        2.33197
C          5.97771        1.04682        3.24222
H          5.42909        1.11642        2.30003
N          5.10741        0.37115        4.18898
C          4.25814       -0.61815        3.80952
C          3.33773       -1.14557        4.87813
O          4.23109       -1.04640        2.65683
C          6.28392        2.46273        3.75866
H          5.98955        2.52559        4.80621
O          7.68954        2.76030        3.81415
C          5.49498        3.53592        3.01397
H          4.44041        3.33653        3.22794
O          5.62699        3.45853        1.60835
C          5.85653        4.94160        3.50059
H          6.77511        5.25254        2.99738
O          6.03067        5.00361        4.91620
C          4.76273        5.93260        3.17273
O          5.14039        7.25204        3.51464
H         11.06129        1.44183        4.30157
H          9.10739        4.14082        1.98386
H          8.95900        0.61504        1.67183
H          7.47255        1.38577        1.13154
H          6.05713       -1.07143        2.23106
H          5.15231        0.62135        5.16194
H          3.54195       -0.73115        5.86212
H          3.42914       -2.22781        4.91092
H          2.31481       -0.90676        4.59521
H          6.54758        3.68180        1.40127
H          6.90932        4.65871        5.10607
H          3.85418        5.63089        3.70535
H          4.56089        5.91640        2.10509
H          5.42575        7.21023        4.43316
