24
-686.53665546
C         -2.41289        0.85872       -0.64268
C         -1.11744        0.40613       -0.00209
C         -0.03656        1.47537       -0.05074
C          1.26299        0.90704        0.47185
C          1.61963       -0.34637       -0.28909
C          0.47000       -1.33781       -0.20143
O         -0.70260       -0.75508       -0.72900
O          0.74617       -2.50656       -0.91115
O          2.80014       -0.87083        0.29131
O          2.25058        1.91687        0.33890
O         -0.47904        2.55409        0.75300
O         -2.24824        1.13735       -2.02156
H         -2.73927        1.78011       -0.16840
H         -3.17031        0.08748       -0.48408
H         -1.30597        0.14363        1.04606
H          0.10125        1.79079       -1.08885
H          1.12939        0.64492        1.52822
H          1.77467       -0.09403       -1.34536
H          0.31695       -1.64460        0.83780
H          0.73897       -2.27295       -1.84667
H          2.95358       -1.73438       -0.10736
H          3.08558        1.53276        0.62718
H          0.26698        3.15951        0.82706
H         -1.91166        0.32905       -2.42032
