40
-1161.23228810
O          3.13633        7.02951        1.88235
C          2.37291        6.87257        0.77984
O          1.51366        7.64760        0.44789
C          2.60649        5.50473        0.11151
O          1.66792        4.63616        0.73237
C          2.21630        5.54101       -1.36414
C          3.33685        5.44591       -2.40908
H          3.40920        6.37456       -2.96882
O          3.05725        4.36910       -3.33428
C          4.72578        5.10749       -1.85832
H          5.18660        4.46115       -2.60591
N          5.58907        6.27411       -1.75021
C          5.21021        7.49738       -1.29219
C          6.33038        8.49234       -1.11532
O          4.04468        7.78070       -1.04356
C          4.66236        4.34739       -0.53424
H          5.67485        4.35098       -0.12054
O          3.91740        5.10384        0.41386
C          4.29880        2.86763       -0.70455
H          5.00584        2.48701       -1.45390
O          2.97130        2.63657       -1.13757
C          4.56035        2.01251        0.53800
H          5.59594        2.19060        0.83808
O          4.47448        0.64467        0.18367
C          3.66654        2.28839        1.73870
O          2.32371        1.90060        1.50055
H          2.84387        7.86798        2.26945
H          1.83302        4.66302        1.68405
H          1.64003        6.44943       -1.51606
H          1.55294        4.69120       -1.50636
H          2.20387        4.55463       -3.74091
H          6.57452        6.11567       -1.87241
H          7.24857        8.20138       -1.61981
H          6.52817        8.59317       -0.04941
H          5.99783        9.45698       -1.48689
H          2.89741        2.98600       -2.03942
H          3.52782        0.45561        0.15927
H          3.74780        3.33664        2.03092
H          4.01759        1.66850        2.56154
H          1.99508        2.47828        0.79819
