24
-686.52566620
C         -1.82820       -0.22222        2.26263
C         -0.44224       -0.31047        1.65990
C          0.08739        1.03761        1.20700
C          1.50004        0.88165        0.67592
C          1.69468       -0.45748       -0.03767
C          0.37047       -1.01623       -0.52104
O         -0.57409       -1.17618        0.52012
O          0.64528       -2.28841       -1.04913
O          2.29255       -1.35168        0.88091
O          1.72245        2.00104       -0.17543
O          0.04132        1.92092        2.31240
O         -2.76927        0.30074        1.34259
H         -1.80538        0.44957        3.11546
H         -2.12175       -1.21886        2.60255
H          0.24798       -0.75281        2.38343
H         -0.55147        1.40063        0.39638
H          2.18280        0.88746        1.52874
H          2.33026       -0.30531       -0.91596
H         -0.05261       -0.36572       -1.29371
H         -0.19625       -2.74721       -1.13924
H          2.13249       -2.23697        0.53010
H          2.66376        2.05157       -0.36593
H          0.34945        2.77619        1.99664
H         -2.71927       -0.26834        0.56804
