24
-686.52952251
C         -1.47993        1.67513        0.09333
C         -0.74911        0.61594        0.91824
C          0.55426        1.05998        1.58614
C          1.77135        0.97512        0.67507
C          1.78811       -0.35043       -0.08285
C          0.43947       -0.66641       -0.73043
O         -0.59295       -0.63201        0.26208
O          0.45842       -1.94065       -1.26278
O          2.16906       -1.41810        0.76923
O          1.71835        2.09718       -0.20458
O          0.87817        0.17970        2.66937
O         -0.86984        2.08232       -1.11043
H         -1.66926        2.52844        0.75748
H         -2.44301        1.25107       -0.18417
H         -1.44507        0.40465        1.73930
H          0.45130        2.08718        1.94667
H          2.66186        1.02956        1.30442
H          2.53813       -0.30438       -0.87538
H          0.20098        0.02864       -1.53215
H          0.91169       -2.48557       -0.60477
H          1.69560       -1.27488        1.60216
H          2.49035        2.06765       -0.77812
H          0.07046        0.00866        3.16379
H          0.04171        2.33340       -0.90573
