24
-686.52417906
C          2.20208       -1.56288       -4.79915
C          1.54269       -0.90586       -3.60311
C          1.36842        0.59627       -3.80539
C          0.32480        1.24346       -2.89510
C          0.60423        1.20023       -1.38610
C          1.92986        1.85013       -1.03886
O          2.37649        2.82732       -1.61234
O          0.48161       -0.07065       -0.80024
O          0.14991        2.59555       -3.31440
O          0.97483        0.81022       -5.15374
O          2.34663       -1.12705       -2.43828
O          3.48178       -0.98079       -5.03110
H          2.37705       -2.61132       -4.56779
H          1.56080       -1.48888       -5.67429
H          0.57999       -1.38038       -3.41032
H          2.33983        1.07024       -3.62195
H         -0.62868        0.74312       -3.06861
H         -0.16486        1.82921       -0.92862
H          2.47257        1.37962       -0.20163
H          1.21651       -0.60636       -1.14057
H          0.91785        3.07600       -2.96842
H          0.60889        1.70572       -5.16597
H          3.25991       -0.97742       -2.71769
H          3.32490       -0.16060       -5.51021
