24
-686.52677265
C         -1.43094        1.46139       -0.89006
C         -0.78844        0.40370       -0.01255
C          0.21821        0.92761        1.03289
C          1.65100        0.83198        0.52593
C          1.96116       -0.62839        0.16314
C          0.71224       -1.38340       -0.27461
O         -0.18864       -0.51266       -0.93581
O          1.10876       -2.38148       -1.16045
O          2.51558       -1.23601        1.33184
O          1.92980        1.71965       -0.52783
O          0.07490        0.17162        2.23395
O         -0.50683        2.01208       -1.82446
H         -1.79524        2.28526       -0.28122
H         -2.27622        1.01820       -1.41840
H         -1.57450       -0.10408        0.55750
H         -0.01813        1.96908        1.25926
H          2.31852        1.08974        1.35013
H          2.67220       -0.62397       -0.66365
H          0.20777       -1.80276        0.60414
H          0.33842       -2.92208       -1.36221
H          2.73916       -2.14643        1.11204
H          1.10918        1.90963       -1.01281
H          0.88950       -0.32569        2.38012
H         -0.25487        1.28020       -2.40047
