24
-686.52645699
C         -2.19046       -0.57430       -3.54384
C         -2.56616       -1.50650       -2.41363
C         -3.99132       -2.00386       -2.55066
C         -4.33318       -3.01042       -1.45050
C         -5.84343       -3.22698       -1.36486
C         -6.13104       -4.37721       -0.43349
O         -6.80146       -5.32311       -0.79443
O         -6.40958       -3.50049       -2.63112
O         -3.66422       -4.23665       -1.67740
O         -4.10324       -2.62536       -3.82492
O         -2.49984       -0.82206       -1.17196
O         -0.89337       -0.07613       -3.20949
H         -2.18104       -1.11487       -4.48874
H         -2.91768        0.24037       -3.59522
H         -1.88383       -2.36176       -2.41846
H         -4.66070       -1.14106       -2.46860
H         -3.98691       -2.61594       -0.49460
H         -6.29801       -2.32338       -0.94001
H         -5.70547       -4.31836        0.57825
H         -6.86063       -4.35473       -2.52297
H         -3.63970       -4.34278       -2.63801
H         -5.01626       -2.94617       -3.87607
H         -1.67494       -0.32287       -1.19890
H         -0.65792        0.60571       -3.84228
