40
-1161.24209795
O          3.62267        1.88485       -0.47706
C          3.60422        3.09043        0.13478
O          2.72380        3.89811       -0.00165
C          4.86249        3.31153        0.99190
O          4.56996        4.22787        2.00863
C          5.40641        2.04137        1.62425
C          6.68558        2.36486        2.38575
H          7.15678        1.43295        2.70798
O          6.44301        3.09462        3.56701
C          7.70173        3.08587        1.48238
H          8.34797        3.66188        2.14472
N          8.53111        2.09535        0.80829
C          9.66732        2.47690        0.17911
C         10.50768        1.38021       -0.41843
O          9.98693        3.66516        0.09355
C          7.12142        4.04987        0.42340
H          7.66711        3.84083       -0.49142
O          5.75959        3.83142        0.03704
C          7.38329        5.53419        0.70835
H          8.35263        5.59927        1.21738
O          6.36808        6.08185        1.53841
C          7.51893        6.30082       -0.60575
H          6.59546        6.17431       -1.18090
O          8.59412        5.80276       -1.38243
C          7.76958        7.78707       -0.37480
O          6.66949        8.44217        0.27319
H          2.82432        1.85844       -1.02464
H          4.96652        5.08281        1.73745
H          5.59712        1.31448        0.83654
H          4.67159        1.62669        2.31319
H          5.73266        3.71740        3.34517
H          8.33975        1.11474        0.92527
H         10.11009        0.38630       -0.22947
H         11.51204        1.45356       -0.00886
H         10.57458        1.54305       -1.49164
H          6.32034        7.03476        1.33971
H          9.17830        5.26623       -0.82496
H          8.00160        8.25769       -1.32941
H          8.62691        7.91415        0.28439
H          5.96553        8.54927       -0.37350
