45
-1296.70604500
C         -0.42715        7.11307        9.88171
C          0.05516        6.23843        8.74317
C         -0.93301        5.14217        8.38346
C         -0.31884        4.22774        7.34997
C          0.99467        3.66991        7.86187
C          1.91093        4.81537        8.26453
O          1.29525        5.67747        9.19119
O          1.94535        8.53976        5.63773
C          2.54211        7.39807        5.02991
C          3.72297        6.86858        5.83753
O          4.30008        5.75953        5.14885
C          4.82857        6.09468        3.89462
C          3.75249        6.69060        2.99278
C          3.05740        7.84299        3.68180
O          2.01746        8.26570        2.81335
O          4.40176        7.11800        1.80510
O          5.88933        7.00278        4.06260
C          3.33135        6.38524        7.20858
O          2.25360        5.46522        7.06845
O          1.60831        2.83430        6.89586
O         -1.25335        3.19330        7.08706
O         -2.09235        5.78235        7.87867
O         -0.59315        6.37516       11.07724
H         -1.39830        7.52686        9.62389
H          0.28363        7.93258       10.01903
H          0.21798        6.85838        7.85469
H         -1.16459        4.56402        9.28285
H         -0.13021        4.80952        6.44054
H          0.79974        3.05106        8.73736
H          2.81067        4.45010        8.76504
H          1.80980        6.60020        4.89234
H          4.46176        7.66587        5.95503
H          5.18894        5.15285        3.47928
H          3.01219        5.91590        2.77483
H          3.77474        8.65480        3.84011
H          1.54274        8.96496        3.27605
H          3.76360        7.65507        1.32169
H          5.99867        7.43837        3.20685
H          3.03037        7.23029        7.83062
H          4.18601        5.88804        7.67401
H          1.27262        8.23393        6.25247
H          2.05437        3.43016        6.27933
H         -0.80235        2.55034        6.52805
H         -2.65174        5.08411        7.52038
H          0.25479        5.95600       11.25543
