40
-1161.25214474
O          4.22799        1.08202        2.95228
C          4.11470        1.95997        3.95364
O          4.06600        3.16012        3.81025
C          4.09574        1.30817        5.34538
O          3.66162        2.28489        6.24607
C          3.20251        0.08189        5.41647
C          3.46653       -0.79760        6.63851
H          2.94092       -1.74283        6.48107
O          2.95050       -0.27229        7.83212
C          4.95964       -1.11569        6.74554
H          5.14305       -1.54237        7.73313
N          5.33264       -2.10310        5.74637
C          6.54814       -2.70686        5.79242
C          6.79937       -3.77502        4.76063
O          7.39538       -2.39486        6.62952
C          5.85796        0.11320        6.59737
H          6.81546       -0.26759        6.25990
O          5.46874        0.98346        5.51171
C          6.13372        0.83900        7.90924
H          6.47704        0.07381        8.60630
O          4.98032        1.42124        8.49944
C          7.25525        1.86323        7.77866
H          7.44794        2.25255        8.77771
O          6.86204        2.98527        6.99702
C          8.53978        1.24790        7.22043
O          8.93644        0.07492        7.90964
H          4.28149        1.60151        2.13593
H          3.83793        3.13833        5.81678
H          3.37569       -0.50060        4.51194
H          2.16285        0.40367        5.42834
H          3.58111        0.38999        8.17669
H          4.65307       -2.42826        5.08062
H          5.97334       -3.90002        4.06497
H          6.98209       -4.71487        5.27646
H          7.70101       -3.51916        4.20994
H          4.70618        2.14121        7.91010
H          6.59495        2.63367        6.13863
H          9.34003        1.97649        7.33239
H          8.41732        1.06892        6.14716
H          8.50180       -0.69314        7.51786
