45
-1296.697143
C          2.31726      -10.65904       -2.81454
C          1.36727       -9.60036       -3.32676
C          1.09456       -8.49753       -2.31081
C          0.06919       -7.54968       -2.88633
C         -1.17782       -8.32300       -3.24437
C         -0.83911       -9.46384       -4.19609
O          0.14153      -10.28835       -3.61501
O         -0.36327       -8.93919       -5.41375
C         -1.25792       -9.03669       -6.51842
C         -0.87099      -10.17432       -7.44999
O         -1.89311      -10.29914       -8.44978
C         -2.43686       -9.09279       -8.96885
C         -1.55437       -7.88282       -8.73143
C         -1.24588       -7.70483       -7.25023
O         -2.19777       -6.81287       -6.70471
O         -0.32631       -8.03726       -9.42062
O         -2.55203       -9.23175      -10.36213
C         -0.82372      -11.51490       -6.75033
O         -2.05995      -11.82918       -6.12619
O         -2.14522       -7.48431       -3.86316
O         -0.33050       -6.55350       -1.95628
O          2.26047       -7.72748       -2.03792
O          1.86816      -11.23976       -1.60219
H          3.28743      -10.21095       -2.61025
H          2.44936      -11.41449       -3.59241
H          1.77528       -9.15921       -4.24047
H          0.69890       -8.94108       -1.39497
H          0.47870       -7.08861       -3.79049
H         -1.59237       -8.75856       -2.33041
H         -1.70223      -10.10536       -4.36854
H         -2.27446       -9.22139       -6.16202
H          0.09579       -9.96431       -7.91426
H         -3.42072       -8.93444       -8.51728
H         -2.09647       -6.99714       -9.07067
H         -0.23086       -7.30087       -7.18836
H         -2.15191       -6.91339       -5.74091
H         -0.55535       -8.39305      -10.28817
H         -2.94270      -10.09441      -10.53339
H         -0.07077      -11.49006       -5.96588
H         -0.54715      -12.28081       -7.47883
H         -2.72549      -11.76738       -6.81992
H         -2.22594       -6.71173       -3.28972
H          0.47172       -6.09362       -1.68601
H          2.75933       -8.17948       -1.35173
H          0.99951      -11.61237       -1.78590
