45
-1296.70380050
C          0.90094        6.93630        8.71110
C          2.15035        7.27087        7.94363
C          3.36033        7.51933        8.82533
C          4.51978        7.86940        7.91866
C          4.18738        9.07049        7.04980
C          2.87740        8.83846        6.30993
O          1.85936        8.45506        7.20418
O         -0.90387        6.73690        4.94779
C         -0.39424        7.63326        3.97219
C          0.89458        8.32793        4.39423
O          1.35442        9.18897        3.35343
C          0.46572       10.22919        3.05369
C         -0.89497        9.67599        2.64116
C         -1.41386        8.71831        3.68834
O         -2.63816        8.19196        3.19948
O         -1.76336       10.79016        2.48593
O          0.34055       11.07277        4.17464
C          1.98929        7.32922        4.67905
O          3.14629        7.85897        5.33540
O          5.25641        9.35554        6.16378
O          5.64194        8.13004        8.74854
O          3.62432        6.34519        9.57184
O         -0.11166        6.60530        7.75511
H          0.60103        7.80151        9.30630
H          1.11060        6.09354        9.36889
H          2.37807        6.44196        7.26725
H          3.15682        8.36801        9.48877
H          4.71668        7.00689        7.27276
H          4.06840        9.94388        7.69094
H          2.51764        9.75650        5.84281
H         -0.22479        7.05042        3.06320
H          0.67024        8.91200        5.28765
H          0.92460       10.76377        2.22114
H         -0.77896        9.13849        1.69610
H         -1.58484        9.26951        4.61993
H         -2.89260        7.49487        3.81538
H         -2.65652       10.43288        2.42280
H         -0.49163       11.54881        4.05205
H          2.34974        6.91541        3.73915
H          1.56876        6.52259        5.28085
H         -0.60097        6.99643        5.83254
H          5.13786        8.76188        5.41150
H          6.34077        8.45391        8.16873
H          4.52086        6.44134        9.91355
H         -0.84819        6.20797        8.22671
