24
-686.52365005
C          7.82522        0.16407        1.06542
C          7.23032        1.40991        0.43541
C          5.71041        1.44363        0.49521
C          5.07132        0.51889       -0.54043
C          3.60722        0.23391       -0.21848
C          2.76972        1.48409       -0.07143
O          2.09240        1.65615        0.92410
O          3.53067       -0.53609        0.95175
O          5.10452        1.11637       -1.82842
O          5.21503        2.76172        0.32253
O          7.64334        1.48605       -0.93074
O          9.23209        0.12483        0.82631
H          7.59630        0.13045        2.13174
H          7.42383       -0.73145        0.59652
H          7.59473        2.29152        0.97392
H          5.39885        1.12436        1.49080
H          5.58330       -0.44641       -0.54197
H          3.19849       -0.30930       -1.08001
H          2.75785        2.18521       -0.91377
H          2.87140       -0.08164        1.50108
H          6.04508        1.20689       -2.03951
H          5.25565        2.92797       -0.62829
H          8.56543        1.19717       -0.93847
H          9.65362        0.73152        1.44154
