45
-1296.688695
C        -11.57763       10.69514        9.53567
C        -10.49352        9.76940       10.03527
C         -9.34620       10.51950       10.72341
C         -8.01302        9.80287       10.46258
C         -8.23885        8.29698       10.47010
C         -9.16534        7.93162        9.29455
O         -9.95814        9.04302        8.90226
O         -9.93909        6.84867        9.72039
C        -10.57280        5.98258        8.75601
C         -9.60151        5.57327        7.64443
O         -9.63346        6.46898        6.54459
C        -10.92114        6.55147        5.90336
C        -11.91298        7.19613        6.86613
C        -11.93501        6.50797        8.24253
O        -12.86717        5.43894        8.21371
O        -11.64307        8.59376        6.91740
O        -10.77148        7.30919        4.76326
C         -9.70058        4.10613        7.25330
O        -11.05489        3.72760        6.99288
O         -8.81119        7.96897       11.72817
O         -7.39793       10.20667        9.24972
O         -9.61989       10.68279       12.10081
O        -12.75629       10.02462        9.14647
H        -11.17120       11.31040        8.72503
H        -11.83904       11.35779       10.35994
H        -10.93082        9.05199       10.73060
H         -9.25539       11.52507       10.30890
H         -7.32890       10.07105       11.26517
H         -7.29197        7.77072       10.33163
H         -8.58548        7.69150        8.40570
H        -10.81883        5.10893        9.35830
H         -8.59051        5.66907        8.04675
H        -11.23885        5.55442        5.60585
H        -12.91596        7.09503        6.45599
H        -12.31070        7.22091        8.97664
H        -12.44491        4.70564        7.74267
H        -10.89879        8.73368        7.53614
H        -10.85274        8.22848        5.05547
H         -9.29886        3.51168        8.07721
H         -9.08334        3.95436        6.36653
H        -11.07761        2.79060        6.77898
H         -9.33070        7.16656       11.58491
H         -8.07382       10.15552        8.56485
H         -9.56084        9.79658       12.48084
H        -12.58806        9.59941        8.29300
