24
-686.52409166
C          3.87424       -0.17694        1.18287
C          2.44479       -0.41085        0.73693
C          2.34845       -0.65234       -0.77311
C          2.01677        0.61719       -1.56565
C          2.33448        0.44345       -3.04721
C          1.80819        1.62710       -3.82061
O          1.06317        1.47455       -4.76681
O          1.77035       -0.74272       -3.56551
O          0.64261        0.94167       -1.37816
O          1.30833       -1.60700       -0.98787
O          1.71751        0.72721        1.18819
O          4.41745        0.99219        0.58582
H          3.89372       -0.10230        2.27228
H          4.50576       -1.01008        0.88170
H          2.06808       -1.31912        1.21654
H          3.30407       -1.05201       -1.12297
H          2.60186        1.45115       -1.18359
H          3.42577        0.42442       -3.15910
H          2.13051        2.62417       -3.48822
H          1.23868       -0.45606       -4.32696
H          0.18268        0.08947       -1.42188
H          1.31600       -1.79471       -1.93805
H          0.99041        0.88781        0.57174
H          3.84203        1.70855        0.87601
