45
-1296.68929050
C         -6.52346       -0.61098        3.32849
C         -6.15940       -0.72367        4.78824
C         -7.42554       -0.80109        5.62943
C         -7.08378       -0.70900        7.09696
C         -6.32797        0.57680        7.35828
C         -5.11946        0.77333        6.43669
O         -5.39440        0.44812        5.10541
O         -0.28134       -2.38435        6.38493
C         -1.19425       -1.34688        6.69977
C         -2.60553       -1.76212        6.25732
O         -2.81737       -1.61394        4.85768
C         -2.42722       -0.36080        4.28885
C         -0.97530       -0.04388        4.57460
C         -0.72770       -0.02874        6.08000
O         -1.32486        1.10857        6.67349
O         -0.13416       -1.02950        3.98343
O         -2.56499       -0.49691        2.91471
C         -3.77824       -1.22546        7.05965
O         -3.92726        0.20165        6.97024
O         -5.96478        0.68446        8.72253
O         -8.31519       -0.72379        7.80363
O         -8.06912       -2.02378        5.32503
O         -5.35312       -0.79825        2.53437
H         -6.95466        0.37785        3.15615
H         -7.26481       -1.37894        3.10858
H         -5.55976       -1.62566        4.92376
H         -8.07079        0.05089        5.37985
H         -6.48788       -1.57886        7.38395
H         -7.01980        1.39384        7.14017
H         -4.86744        1.83203        6.41905
H         -1.18661       -1.23842        7.78599
H         -2.63283       -2.84132        6.42938
H         -3.06847        0.43281        4.66960
H         -0.75683        0.94743        4.17135
H          0.34411        0.04986        6.25569
H         -2.27367        0.93600        6.76767
H         -0.56122       -1.26799        3.14954
H         -3.51318       -0.62691        2.74530
H         -3.64082       -1.48523        8.11233
H         -4.67166       -1.72212        6.69865
H         -0.08269       -2.27808        5.44168
H         -5.01535        0.51672        8.76650
H         -8.10612       -0.59551        8.73586
H         -8.75954       -2.13682        5.98889
H         -5.61921       -0.80448        1.61114
