30
-819.15474754
C          0.19877       -4.15641       -3.96740
C          0.39982       -4.24005       -2.46431
C         -0.57597       -3.36904       -1.68548
C         -0.19953       -1.88078       -1.62688
C          1.32507       -1.67243       -1.60477
C          2.10437       -2.94739       -1.28645
O          1.78397       -3.95841       -2.22270
N          1.72828       -0.61203       -0.71675
C          2.46502        0.44998       -1.16664
O          2.71460        0.62852       -2.35032
C          2.92153        1.40967       -0.09523
O         -0.82187       -1.14540       -2.65668
O         -0.64825       -3.93432       -0.36398
O          0.48793       -2.86083       -4.48343
H          0.83528       -4.90276       -4.44371
H         -0.83743       -4.37060       -4.22196
H          0.20918       -5.27234       -2.15714
H         -1.55478       -3.44239       -2.16343
H         -0.61641       -1.48568       -0.69830
H          1.62685       -1.34444       -2.59812
H          3.16475       -2.75866       -1.43780
H          1.73437       -0.81620        0.26918
H          2.44853        2.37242       -0.27483
H          2.68061        1.07564        0.91092
H          3.99587        1.54569       -0.18754
H         -0.44668       -1.47807       -3.48719
H         -1.33106       -3.45810        0.12029
H          1.44068       -2.74203       -4.40425
O          1.97848       -3.35168        0.04873
H          1.06083       -3.64707        0.17198
