40
-1161.23465863
O          9.19220        3.97915        7.50840
C          7.84784        4.02652        7.35422
O          7.07340        3.63262        8.19132
C          7.40344        4.54661        5.97691
O          6.08051        4.91849        6.07075
C          8.21401        5.72057        5.42812
C          8.79474        5.42591        4.06055
H          9.50576        6.21268        3.79643
O          7.72107        5.39236        3.13445
C          9.57310        4.10701        4.08840
H          9.86602        3.87372        3.06426
N         10.80058        4.26125        4.83832
C         11.92169        4.76803        4.24624
C         13.12156        4.91459        5.14933
O         11.95142        5.06463        3.05932
C          8.72860        2.95298        4.66177
H          9.28053        2.46728        5.47318
O          7.45225        3.39605        5.12537
C          8.42738        1.91329        3.59148
H          9.36725        1.69737        3.07901
O          7.55141        2.45776        2.61256
C          7.91141        0.55524        4.07732
H          8.70407        0.07113        4.65192
O          7.71023       -0.25459        2.93337
C          6.67011        0.60300        4.94896
O          6.37993       -0.73514        5.32858
H          9.34538        3.57685        8.37812
H          5.66351        4.31867        6.70540
H          9.02430        5.97986        6.10589
H          7.54131        6.57186        5.35851
H          8.08435        5.16206        2.27209
H         10.77977        4.12848        5.83539
H         12.91774        4.63634        6.18066
H         13.45968        5.94708        5.11195
H         13.92264        4.29002        4.76106
H          6.98089        3.08786        3.07611
H          7.21541        0.29613        2.31409
H          5.84480        1.04803        4.38535
H          6.85962        1.22456        5.82493
H          5.57228       -0.72169        5.84673
