45
-1296.694104
C          0.08985        6.62529        6.52114
C         -0.63529        5.44277        7.11963
C         -0.64216        5.40453        8.64229
C         -1.33019        4.12917        9.08494
C         -0.63483        2.93640        8.47283
C         -0.57358        3.07718        6.96053
O          0.05138        4.29206        6.61453
O         -1.87501        2.99853        6.44750
C         -1.96082        2.33899        5.18804
C         -2.90372        3.12750        4.28834
O         -3.33533        2.33644        3.17237
C         -2.48581        1.21268        2.89997
C         -2.60731        0.21685        4.05555
C         -2.51233        0.93940        5.39793
O         -1.70918        0.18189        6.27618
O         -3.81502       -0.52380        3.90696
O         -2.88103        0.65110        1.70582
C         -2.29878        4.43099        3.80919
O         -1.04735        4.24069        3.15635
O         -1.29356        1.71941        8.77624
O         -1.27834        3.94827       10.49138
O         -1.40134        6.46889        9.20725
O         -0.06290        6.67479        5.11766
H          1.14489        6.57374        6.81088
H         -0.33498        7.55097        6.90600
H         -1.67193        5.44489        6.77237
H          0.38433        5.40792        9.02270
H         -2.36801        4.15911        8.73825
H          0.39551        2.91418        8.84041
H          0.05309        2.29371        6.53629
H         -0.96585        2.29517        4.74164
H         -3.79733        3.36339        4.87462
H         -1.45684        1.55335        2.77729
H         -1.80079       -0.51154        3.99437
H         -3.52648        1.05170        5.80353
H         -1.73668        0.60682        7.14736
H         -4.53874        0.07840        4.11302
H         -3.57112        0.01307        1.93622
H         -2.10949        5.08174        4.65915
H         -3.01285        4.92756        3.15071
H         -1.23131        3.99540        2.24550
H         -1.45572        1.72039        9.72662
H         -1.68776        4.72692       10.88404
H         -0.86255        7.26418        9.21180
H          0.19366        5.81482        4.76269
