40
-1161.24790805
O         -4.45572        0.90861        0.08244
C         -3.71230        1.95746       -0.30813
O         -3.09498        2.66249        0.45700
C         -3.67675        2.10274       -1.83510
O         -4.74541        1.45650       -2.45285
C         -3.72509        3.54931       -2.27977
C         -2.47438        4.35224       -1.94136
H         -2.51092        4.64871       -0.89734
O         -2.46923        5.58037       -2.65336
C         -1.18688        3.53832       -2.16820
H         -0.55234        4.12351       -2.83027
N         -0.45737        3.35803       -0.92886
C          0.85714        3.04463       -0.97121
C          1.53120        2.80631        0.35272
O          1.47515        2.96800       -2.03748
C         -1.42908        2.18892       -2.83890
H         -0.55156        1.56159       -2.68587
O         -2.46363        1.44473       -2.17251
C         -1.65793        2.30393       -4.35568
H         -2.15714        3.25269       -4.59713
O         -2.40984        1.21501       -4.84597
C         -0.31489        2.28538       -5.08546
H          0.16845        1.32571       -4.87720
O          0.52023        3.36811       -4.69730
C         -0.50297        2.42832       -6.58231
O          0.74564        2.41642       -7.24582
H         -4.36244        0.84107        1.04460
H         -4.87825        0.60868       -2.01171
H         -4.60482        4.02511       -1.85118
H         -3.86912        3.52541       -3.36033
H         -2.35090        5.38609       -3.58894
H         -0.97538        3.27011       -0.06862
H          0.85495        2.91701        1.19641
H          2.35254        3.51175        0.45266
H          1.95359        1.80432        0.35208
H         -3.01657        0.95063       -4.14269
H          0.94862        3.16252       -3.84724
H         -1.04230        3.36339       -6.77435
H         -1.09093        1.60122       -6.96774
H          1.30188        3.02158       -6.74215
