45
-1296.683654
C          0.62214       -1.20253        6.76590
C          0.04474       -0.17172        5.80244
C         -1.41140        0.23185        6.03846
C         -2.42947       -0.68654        5.36519
C         -2.02195       -1.00517        3.92609
C         -0.57675       -1.47564        3.89751
O          0.28434       -0.47774        4.42726
O         -0.19940       -1.64089        2.56649
C          0.68975       -2.74240        2.32171
C          1.34954       -2.44260        0.96973
O          0.66343       -3.04780       -0.12676
C         -0.74956       -3.04194       -0.01217
C         -1.16701       -3.97408        1.14447
C         -0.13025       -4.02556        2.28632
O          0.68601       -5.17273        2.23390
O         -2.44849       -3.60899        1.63776
O         -1.29844       -1.75978        0.09146
C          2.78363       -2.92124        0.83083
O          2.86814       -4.33964        0.73581
O         -2.22658        0.10205        3.07614
O         -2.52599       -1.86350        6.16635
O         -1.52242        1.54526        5.48943
O          0.11258       -2.51653        6.67283
H          0.51053       -0.79896        7.77964
H          1.68736       -1.27772        6.55576
H          0.61773        0.74102        5.97743
H         -1.60615        0.24145        7.11508
H         -3.39573       -0.17332        5.33894
H         -2.64483       -1.81443        3.54049
H         -0.45793       -2.40323        4.45864
H          1.44562       -2.78161        3.11007
H          1.34504       -1.35411        0.85867
H         -1.10137       -3.43344       -0.96222
H         -1.21550       -4.99133        0.75341
H         -0.70917       -4.09781        3.20800
H          1.49517       -4.96800        1.73537
H         -2.68648       -2.79788        1.16963
H         -1.08248       -1.40569        0.97348
H          3.36626       -2.62485        1.69970
H          3.21931       -2.46101       -0.05673
H          2.40969       -4.56955       -0.08130
H         -1.64133        0.80239        3.39522
H         -3.12481       -2.47992        5.73131
H         -2.43517        1.83644        5.58558
H         -0.85156       -2.46167        6.73100
