45
-1296.69076777
C          1.07468        7.33243        9.10128
C          1.61008        6.30661        8.12307
C          0.68652        5.09430        7.94743
C          1.26810        3.84501        8.60167
C          2.72716        3.56223        8.20940
C          3.48182        4.86581        7.89454
O          2.91668        5.94652        8.59145
O          1.60590        6.58049        4.49648
C          2.63984        5.74432        4.00073
C          4.01770        6.16528        4.50390
O          4.99699        5.25892        3.98675
C          5.07748        5.29803        2.57012
C          3.73865        4.90341        1.96545
C          2.64664        5.81055        2.48961
O          1.42496        5.33682        1.94021
O          3.83589        4.93126        0.55952
O          5.42098        6.57044        2.09880
C          4.12261        6.15962        6.00950
O          3.42437        5.02388        6.50551
O          2.81665        2.62796        7.15939
O          1.13074        4.04971       10.00498
O          0.50924        4.88970        6.54115
O          0.61803        6.79542       10.32374
H          0.22951        7.83952        8.63376
H          1.86517        8.06985        9.26499
H          1.70186        6.79241        7.14881
H         -0.27343        5.30809        8.42084
H          0.68356        2.97703        8.28230
H          3.20242        3.11526        9.08624
H          4.52094        4.82632        8.22948
H          2.46286        4.70947        4.29913
H          4.23339        7.17880        4.15462
H          5.83827        4.56098        2.31544
H          3.52293        3.88907        2.31899
H          2.83718        6.83869        2.16794
H          0.73113        5.87311        2.33968
H          2.93425        4.84331        0.23123
H          6.34307        6.72468        2.32429
H          3.67936        7.07048        6.41245
H          5.17461        6.11500        6.30337
H          1.16115        6.07938        5.19732
H          2.98844        3.14831        6.36348
H          1.53274        3.30202       10.45753
H         -0.17364        4.22311        6.41494
H          1.09061        5.96966       10.48787
