45
-1296.69626828
C          1.95088        3.97394        4.71374
C          1.97482        5.21318        5.58277
C          3.37886        5.60589        6.00984
C          3.31186        6.74179        7.00437
C          2.43604        6.35822        8.18134
C          1.07036        5.92480        7.67266
O          1.17730        4.88681        6.73233
O         -1.01225        7.20315        3.75442
C         -0.52546        8.19701        4.63229
C         -1.31877        8.07970        5.93147
O         -1.29449        9.29484        6.68244
C         -0.11912       10.06836        6.48601
C         -0.03999       10.57196        5.02865
C         -0.72909        9.59528        4.09629
O         -0.19985        9.62347        2.77831
O         -0.68053       11.83050        4.85782
O         -0.14038       11.11589        7.39141
C         -0.88597        6.90022        6.76919
O          0.48147        7.08251        7.13095
O          2.33769        7.42031        9.11607
O          4.63897        7.02585        7.41949
O          4.07591        5.99357        4.83770
O          2.45237        2.83870        5.39623
H          2.59050        4.13567        3.85026
H          0.92616        3.80965        4.37093
H          1.52193        6.04297        5.03297
H          3.85965        4.74492        6.48392
H          2.87674        7.61417        6.50327
H          2.89486        5.52137        8.70711
H          0.44947        5.52462        8.47799
H          0.54447        8.04565        4.81688
H         -2.35962        7.91914        5.64454
H          0.76244        9.47117        6.72120
H          1.01317       10.63435        4.74205
H         -1.79916        9.82254        4.08656
H         -0.45741       10.45917        2.37764
H         -0.08980       12.50605        5.20477
H         -0.91680       11.64333        7.16494
H         -1.00127        5.98523        6.18429
H         -1.49840        6.83964        7.67230
H         -0.71306        7.46029        2.87343
H          1.67926        8.02994        8.75959
H          4.57036        7.64998        8.15097
H          4.92085        6.35110        5.13222
H          1.92284        2.75106        6.19508
