24
-686.52626082
C         -0.47913        3.04729       -1.55376
C          0.51132        2.02718       -1.03459
C          1.95118        2.45821       -1.29405
C          2.93478        1.45216       -0.69501
C          4.34243        1.67030       -1.24777
C          5.31864        0.81587       -0.47979
O          6.29609        1.30275        0.05141
O          4.73956        3.02410       -1.16119
O          2.93334        1.54369        0.71802
O          2.13099        3.72651       -0.67312
O          0.27218        0.76380       -1.63515
O         -0.35622        3.01860       -2.97879
H         -1.48441        2.75044       -1.24997
H         -0.24411        4.03235       -1.15385
H          0.37371        1.90795        0.03987
H          2.10489        2.52467       -2.37522
H          2.61200        0.44509       -0.96099
H          4.35603        1.34367       -2.29518
H          5.10182       -0.26030       -0.42306
H          5.56664        3.00896       -0.65101
H          2.80920        2.48301        0.91119
H          3.05244        3.97112       -0.84528
H          0.04353        0.95958       -2.55238
H         -1.04089        3.57638       -3.35392
