40
-1161.24875012
O          1.78145        1.61358       -0.64063
C          3.03437        1.63941       -0.14445
O          3.29333        1.53681        1.03017
C          4.05609        1.87795       -1.26252
O          3.78695        1.03659       -2.36607
C          4.04888        3.35858       -1.65009
C          5.35673        3.71604       -2.34379
H          5.36538        4.78396       -2.55216
O          5.48394        3.06859       -3.60170
C          6.56399        3.39264       -1.42324
H          7.26763        2.83239       -2.03540
N          7.27104        4.56545       -0.94311
C          6.67192        5.55005       -0.22216
C          7.57410        6.66734        0.23854
O          5.47384        5.52568        0.04298
C          6.12380        2.49826       -0.27060
H          5.56870        3.07619        0.46769
O          5.30991        1.45400       -0.82532
C          7.26419        1.78640        0.42746
H          7.92847        2.54268        0.84925
O          8.05086        1.04354       -0.50705
C          6.76241        0.88589        1.56443
H          6.24071        0.03129        1.12369
O          5.91373        1.61741        2.43150
C          7.91188        0.36938        2.41746
O          8.77325       -0.51481        1.72406
H          1.18014        1.50230        0.11121
H          2.84937        1.12012       -2.57667
H          3.94623        3.98986       -0.76818
H          3.20299        3.54212       -2.31124
H          5.14806        2.16960       -3.49973
H          8.25597        4.63670       -1.12777
H          7.11522        7.61471       -0.03095
H          8.57473        6.61453       -0.18293
H          7.64071        6.62762        1.32380
H          7.44266        0.43895       -0.95160
H          5.02303        1.59155        2.05789
H          7.49118       -0.18179        3.25489
H          8.45585        1.22973        2.82349
H          8.95130       -0.10776        0.86805
