45
-1296.697074
C          1.97544      -10.85964       11.69775
C          1.18826       -9.83487       10.92651
C         -0.30740      -10.09784       10.93492
C         -0.97653       -9.02684       10.10287
C         -0.40556       -9.01618        8.69753
C          1.11223       -8.89137        8.74471
O          1.67462       -9.86340        9.58066
O          1.39848       -7.56950        9.15971
C          2.71482       -7.08930        8.81387
C          3.81633       -7.70608        9.69905
O          4.77289       -6.68858       10.01447
C          4.25838       -5.72131       10.93313
C          2.85229       -5.24643       10.48674
C          2.66844       -5.56982        9.00891
O          3.63847       -4.91438        8.21802
O          1.84286       -5.86362       11.28489
O          4.22870       -6.19926       12.23067
C          4.59900       -8.80323        9.00980
O          5.25202       -8.31813        7.84545
O         -0.99976       -7.99894        7.91199
O         -2.36664       -9.30368       10.09264
O         -0.75738      -10.06218       12.27561
O          3.31234      -10.38102       11.78302
H          1.92742      -11.81551       11.16932
H          1.52048      -10.96749       12.68270
H          1.37444       -8.85471       11.37609
H         -0.50628      -11.07493       10.47900
H         -0.78761       -8.05744       10.58045
H         -0.64968       -9.96305        8.21644
H          1.55139       -9.05717        7.75885
H          2.90697       -7.29669        7.75858
H          3.38586       -8.10480       10.61877
H          4.97884       -4.90930       10.87434
H          2.77946       -4.17276       10.64675
H          1.69688       -5.21034        8.67214
H          4.47687       -5.34694        8.42367
H          1.45155       -6.58039       10.76390
H          3.29614       -6.38955       12.41747
H          3.92518       -9.59497        8.69626
H          5.31062       -9.22190        9.72272
H          5.90872       -7.68388        8.14818
H         -0.55502       -7.17920        8.16096
H         -2.76850       -8.69106        9.46607
H         -1.71872       -9.99799       12.23716
H          3.80099      -10.95885       12.37423
