45
-1296.695255
C          2.36705        0.07650        0.89617
C          2.12707        1.41559        1.56569
C          3.39125        2.07188        2.12390
C          3.84221        1.50275        3.48133
C          2.66116        1.05814        4.35304
C          1.33212        1.60510        3.87502
O          1.07434        1.20878        2.54407
O          1.33276        3.00240        4.02547
C          0.06471        3.57843        4.37320
C         -0.25981        4.71864        3.43037
O         -1.52831        5.25419        3.81223
C         -1.55139        5.75019        5.12781
C         -1.19127        4.69605        6.17356
C          0.13195        4.03788        5.81619
O          0.33774        2.93799        6.67770
O         -1.20831        5.26120        7.46461
O         -0.63400        6.81042        5.31398
C         -0.34434        4.27647        1.97787
O         -1.06521        3.07481        1.78005
O          2.78851        1.43912        5.71521
O          4.79033        0.45733        3.35906
O          3.25765        3.48289        2.16998
O          2.85229       -0.91468        1.80021
H          3.12256        0.18884        0.12090
H          1.44082       -0.26069        0.42970
H          1.73059        2.09728        0.80862
H          4.19837        1.87816        1.41747
H          4.35261        2.31816        3.99097
H          2.58795       -0.02922        4.27513
H          0.51859        1.17882        4.46115
H         -0.71739        2.82244        4.27410
H          0.50779        5.49593        3.51121
H         -2.57354        6.09258        5.28319
H         -1.96316        3.92663        6.16302
H          0.93961        4.77218        5.91316
H          1.22292        2.58891        6.50209
H         -0.67134        6.05982        7.41244
H         -0.95914        7.57248        4.82527
H          0.67074        4.20001        1.58127
H         -0.86492        5.05690        1.42576
H         -0.46470        2.34392        1.97863
H          3.59385        1.03822        6.05824
H          4.34996       -0.24289        2.85336
H          2.60211        3.66586        2.85966
H          2.09960       -1.20128        2.32633
