24
-686.52236385
C         -1.32404        1.16850       -0.84492
C         -1.03659        0.27468        0.35277
C          0.03502        0.83684        1.26415
C          1.43860        0.77280        0.65226
C          1.57060       -0.36581       -0.34425
C          0.61055       -1.48365        0.00209
O         -0.72859       -1.04586       -0.13186
O          0.83140       -2.49479       -0.93815
O          2.91917       -0.79638       -0.32816
O          1.71842        2.03548        0.06590
O         -0.03162        0.07011        2.46320
O         -2.26585        0.55196       -1.70138
H         -0.40105        1.41070       -1.37565
H         -1.76704        2.10171       -0.50037
H         -1.95238        0.16629        0.93402
H         -0.19268        1.88914        1.45478
H          2.14215        0.56374        1.46449
H          1.28637       -0.00747       -1.33834
H          0.77861       -1.84966        1.01827
H          0.33137       -3.26993       -0.66643
H          2.96334       -1.57244       -0.89815
H          2.58788        1.97235       -0.34313
H          0.59342        0.44721        3.08968
H         -1.95409       -0.35353       -1.81334
