24
-686.53646112
C         -1.21674        2.09880       -1.88638
C         -0.51609        1.19941       -0.89385
C          0.73528        1.82503       -0.29392
C          1.40737        0.79715        0.58650
C          1.71172       -0.45397       -0.20481
C          0.45208       -0.97538       -0.88777
O         -0.14818        0.03782       -1.64772
O         -0.46499       -1.45717        0.06114
O          2.18149       -1.49225        0.64143
O          2.64480        1.25452        1.11161
O          0.44057        2.93020        0.55567
O         -2.37007        1.48448       -2.42158
H         -0.50660        2.36825       -2.67641
H         -1.55022        3.00761       -1.38847
H         -1.20647        0.92184       -0.09477
H          1.42253        2.11806       -1.09422
H          0.71728        0.54936        1.39913
H          2.45088       -0.21354       -0.97380
H          0.70935       -1.75411       -1.60709
H          0.06618       -1.89087        0.74200
H          2.85410       -1.09901        1.20920
H          2.45514        2.07426        1.58098
H          0.27593        3.70312        0.00963
H         -2.09772        0.59918       -2.68631
