24
-686.53447583
C         -2.33008        0.99983       -0.57242
C         -1.04686        0.47422        0.03298
C          0.08989        1.48210       -0.08064
C          1.36489        0.86376        0.44980
C          1.64610       -0.45023       -0.23780
C          0.43018       -1.34422       -0.09535
O         -0.69728       -0.71603       -0.66456
O          0.69762       -2.51460       -0.79945
O          2.79455       -1.00321        0.38245
O          2.40459        1.80864        0.25081
O         -0.25967        2.63192        0.66980
O         -3.45188        0.17978       -0.28637
H         -2.21998        0.99987       -1.65530
H         -2.47991        2.02604       -0.23557
H         -1.20923        0.25504        1.09760
H          0.23571        1.73327       -1.13737
H          1.23088        0.67109        1.52106
H          1.81009       -0.28297       -1.30625
H          0.23560       -1.55061        0.96706
H         -0.06587       -3.09391       -0.71132
H          2.96016       -1.85283       -0.03942
H          3.22362        1.38282        0.52660
H          0.54387        3.15968        0.74166
H         -3.70142        0.33814        0.62709
