24
-686.52563311
C         -1.86202        1.57855       -1.11459
C         -0.71080        0.87072       -0.42614
C          0.38998        1.83813       -0.00010
C          1.69556        1.10003        0.30452
C          1.50904       -0.40932        0.36111
C          0.79452       -0.90655       -0.89993
O         -0.17503       -0.02229       -1.40043
O          0.21772       -2.14770       -0.54290
O          0.78856       -0.70845        1.53874
O          2.62568        1.43142       -0.72448
O          0.01973        2.58125        1.14730
O         -2.46911        2.54997       -0.26097
H         -2.59034        0.84549       -1.46432
H         -1.48445        2.12286       -1.97775
H         -1.07172        0.32806        0.45059
H          0.60248        2.49837       -0.84761
H          2.03618        1.44294        1.28258
H          2.49323       -0.89038        0.38450
H          1.50910       -1.03707       -1.71122
H         -0.27390       -2.46392       -1.30693
H          0.39861       -1.58008        1.39749
H          3.49606        1.14098       -0.43710
H         -0.82655        2.99183        0.92798
H         -3.00641        2.07836        0.38167
