45
-1296.687919
C         -6.78527        0.56140        1.07864
C         -6.10497       -0.52645        1.88013
C         -6.26350       -0.35530        3.39855
C         -4.95181        0.06145        4.04891
C         -3.77406       -0.84342        3.65707
C         -3.92786       -1.38808        2.22148
O         -4.72931       -0.52822        1.46210
O         -4.50098       -2.68056        2.26087
C         -3.68460       -3.74638        1.80472
C         -3.89347       -3.99551        0.31361
O         -3.13679       -5.14604       -0.09857
C         -3.48163       -6.33332        0.57030
C         -3.33319       -6.18473        2.07618
C         -4.10499       -4.97561        2.57517
O         -3.83893       -4.75162        3.94850
O         -3.73357       -7.35929        2.76047
O         -4.82126       -6.71388        0.34428
C         -3.40927       -2.86221       -0.56397
O         -2.03775       -2.56982       -0.34672
O         -3.53170       -1.86059        4.59309
O         -4.73242        1.41707        3.66257
O         -6.69605       -1.60836        3.91929
O         -6.47442        1.87533        1.49294
H         -7.86430        0.42925        1.17611
H         -6.51850        0.41410        0.02838
H         -6.55314       -1.48749        1.62002
H         -7.00487        0.42405        3.59123
H         -5.05722       -0.01013        5.13593
H         -2.88684       -0.20305        3.65421
H         -2.96288       -1.42668        1.71760
H         -2.62991       -3.53850        2.00457
H         -4.95945       -4.16105        0.13297
H         -2.79447       -7.08691        0.18653
H         -2.27821       -6.03761        2.30558
H         -5.17707       -5.13254        2.41371
H         -3.97592       -5.59414        4.39707
H         -4.56841       -7.62732        2.35707
H         -4.90298       -6.99798       -0.57129
H         -3.96746       -1.95674       -0.33787
H         -3.59311       -3.13245       -1.60650
H         -1.55233       -3.38033       -0.53148
H         -4.00134       -2.65583        4.29814
H         -3.85479        1.67479        3.96034
H         -6.83585       -1.49946        4.86523
H         -5.64476        1.84750        1.98753
