45
-1296.682113
C        -10.85489       -0.79967       13.70364
C         -9.53197       -0.60098       13.00081
C         -8.35475       -1.06652       13.86962
C         -7.12904       -0.17293       13.63949
C         -7.05890        0.21392       12.16922
C         -8.28270        1.08288       11.83759
O         -9.37837        0.81116       12.70465
O         -8.58391        0.84532       10.49656
C         -9.56895        1.66556        9.84324
C         -9.47686        3.15947       10.12707
O        -10.59289        3.71525        9.44188
C        -11.79623        3.56976       10.19448
C        -11.91589        2.13491       10.77376
C        -11.02964        1.17591        9.97886
O        -11.60481        1.00749        8.69030
O        -11.62814        2.14647       12.17324
O        -11.88882        4.51485       11.20457
C         -8.20220        3.80215        9.60760
O         -7.89888        3.45317        8.26888
O         -7.03851       -0.99200       11.42154
O         -7.13211        0.98758       14.45633
O         -8.08875       -2.43470       13.64007
O        -11.97805       -0.63012       12.86552
H        -10.89465       -0.13748       14.57513
H        -10.87056       -1.82787       14.06351
H         -9.53262       -1.15432       12.06096
H         -8.61745       -0.98139       14.92568
H         -6.24384       -0.74520       13.90913
H         -6.16174        0.80456       11.97231
H         -8.05129        2.13148       12.01827
H         -9.33111        1.53827        8.78903
H         -9.55546        3.39719       11.19302
H        -12.57682        3.76046        9.46236
H        -12.94723        1.80491       10.66443
H        -11.04251        0.19377       10.44910
H        -11.45309        1.83118        8.21133
H        -10.74910        1.74678       12.33010
H        -11.76373        4.02665       12.03275
H         -7.37448        3.55609       10.27805
H         -8.34793        4.88003        9.62922
H         -7.37159        2.65118        8.27931
H         -7.40021       -0.77957       10.55094
H         -8.01610        1.36655       14.40332
H         -7.72579       -2.48174       12.74600
H        -12.12859        0.31905       12.76292
