24
-686.52205418
C         -1.26367        1.33943       -1.06371
C         -1.07387        0.51809        0.21791
C          0.04237        1.04020        1.10529
C          1.39634        0.92354        0.42315
C          1.46577       -0.30794       -0.47046
C          0.44265       -1.35322       -0.06664
O         -0.88432       -0.85652       -0.13462
O          0.57237       -2.38494       -1.00507
O          2.78245       -0.82495       -0.40338
O          1.58630        2.13148       -0.31653
O          0.14140        0.28284        2.30766
O         -1.29137        2.73383       -0.82333
H         -2.21950        1.06582       -1.50507
H         -0.48504        1.07507       -1.77810
H         -2.00406        0.55740        0.79186
H         -0.14221        2.09226        1.32471
H          2.15459        0.82230        1.20101
H          1.22028       -0.01567       -1.49530
H          0.64508       -1.71932        0.94188
H          0.02490       -3.12061       -0.71579
H          2.77966       -1.63836       -0.92071
H          2.44106        2.07256       -0.75499
H         -0.74315        0.20627        2.67838
H         -0.36963        3.00402       -0.73627
