45
-1296.69899491
C          4.10124        3.50432        1.05155
C          4.61488        4.76611        1.70736
C          4.94594        5.89682        0.75640
C          5.51235        7.03249        1.58097
C          6.72682        6.57395        2.37165
C          6.38932        5.33984        3.20095
O          5.80557        4.35426        2.38588
O          2.83151        4.43545        6.54247
C          3.58214        3.29484        6.17578
C          4.45725        3.69236        4.99515
O          5.20278        2.57793        4.48679
C          4.97333        1.30934        5.12168
C          3.47745        0.99195        5.16498
C          2.67278        2.17943        5.70786
O          1.84631        1.84878        6.81886
O          3.03218        0.55059        3.89369
O          5.66070        0.35765        4.40028
C          5.38628        4.85513        5.32123
O          5.55293        5.77583        4.24089
O          7.22997        7.62891        3.17335
O          5.85234        8.08031        0.68614
O          3.75706        6.27934        0.09033
O          3.91655        2.49651        2.04039
H          4.81900        3.17104        0.29744
H          3.14388        3.69199        0.57407
H          3.87524        5.12437        2.42914
H          5.70648        5.56063        0.04212
H          4.73565        7.36509        2.27914
H          7.51767        6.30759        1.67092
H          7.28708        4.87256        3.61181
H          4.18576        2.95028        7.02312
H          3.76904        4.02973        4.21570
H          5.39906        1.32944        6.12627
H          3.34225        0.14706        5.83984
H          2.06557        2.58415        4.89153
H          1.13439        1.28288        6.50526
H          3.10205        1.28210        3.25456
H          5.04181        0.04680        3.72294
H          6.35836        4.46250        5.63281
H          4.94893        5.44446        6.12291
H          2.11254        4.10899        7.09671
H          6.66360        7.64724        3.95538
H          6.31640        8.74600        1.20655
H          3.94151        7.12976       -0.32452
H          4.69323        2.54209        2.62707
