24
-686.53051523
C         -1.16112       -0.02764        3.08498
C         -0.01774       -0.32543        2.14391
C          1.01075        0.81142        2.06371
C          1.49249        0.96992        0.61959
C          1.68188       -0.40738       -0.00625
C          0.31335       -1.13649       -0.06157
O         -0.60922       -0.54261        0.86379
O          0.46927       -2.49039        0.16652
O          2.62299       -1.19044        0.72229
O          0.59243        1.75388       -0.13901
O          2.17287        0.52308        2.85250
O         -2.02757       -1.13111        3.22283
H         -1.68976        0.85873        2.71720
H         -0.77391        0.19946        4.07890
H          0.48421       -1.24200        2.46811
H          0.57011        1.76244        2.37288
H          2.44166        1.50278        0.63362
H          2.05874       -0.30412       -1.02179
H         -0.17059       -0.99113       -1.02389
H          1.34866       -2.58242        0.56814
H          2.72689       -0.79576        1.60185
H         -0.26664        1.31990       -0.06259
H          1.90377        0.39269        3.76732
H         -2.21883       -1.43417        2.32828
