45
-1296.69473986
C          6.89546        3.62097        6.32423
C          5.45660        3.96394        6.62709
C          5.14126        3.97009        8.11085
C          3.67071        4.27501        8.28710
C          2.83492        3.25849        7.52960
C          3.28863        3.15767        6.07924
O          4.66953        2.94916        5.97727
O          3.99607        7.52547        2.68051
C          3.61216        6.76550        3.81218
C          2.63915        5.63061        3.42533
O          1.28181        5.89845        3.79555
C          0.88734        7.21825        3.56642
C          1.60301        8.16230        4.54170
C          3.01250        7.65837        4.90001
O          2.99073        7.00341        6.15580
O          1.58332        9.44195        3.91657
O          1.17261        7.56685        2.22387
C          2.97151        4.28392        4.01697
O          2.87525        4.35016        5.44068
O          1.45071        3.54479        7.62771
O          3.39403        4.22607        9.67888
O          5.95258        4.95007        8.72828
O          7.14201        3.62443        4.92850
H          7.13155        2.64886        6.76744
H          7.54194        4.37245        6.76747
H          5.22070        4.94323        6.20220
H          5.34661        2.97476        8.52368
H          3.48299        5.28247        7.90158
H          2.98238        2.28341        7.99379
H          2.82219        2.30484        5.58147
H          4.53332        6.33258        4.20447
H          2.70366        5.51972        2.34002
H         -0.18965        7.22931        3.73088
H          1.03933        8.17912        5.47599
H          3.66900        8.52477        5.00023
H          2.85502        6.05783        5.98781
H          2.08893       10.05572        4.45666
H          1.15428        8.53511        2.20838
H          3.98540        4.00474        3.72472
H          2.26387        3.53669        3.65029
H          3.17856        7.71439        2.20045
H          1.26551        4.23001        6.97344
H          2.44618        4.36676        9.78027
H          5.57151        5.10595        9.60003
H          6.54695        2.97004        4.55062
