45
-1296.691157
C          1.63216        0.38235        3.75640
C          0.35465        0.92869        3.16869
C         -0.36420        0.02631        2.17717
C         -1.58215        0.77588        1.67834
C         -1.18226        2.11165        1.09260
C         -0.36186        2.91084        2.09870
O          0.74055        2.13209        2.49513
O         -1.18465        3.24583        3.17613
C         -1.10130        4.56459        3.71789
C         -0.66165        4.50653        5.19179
O         -1.46290        5.34295        6.02441
C         -1.67696        6.63128        5.44460
C         -2.59639        6.51379        4.22112
C         -2.51100        5.12033        3.63813
O         -2.98551        5.18985        2.31072
O         -3.92200        6.80823        4.63981
O         -2.18215        7.47458        6.40673
C          0.80431        4.85139        5.42412
O          1.60405        4.10097        4.51055
O         -2.32021        2.87020        0.71664
O         -2.26635        0.07885        0.64722
O         -0.86764       -1.16529        2.77223
O          2.10903        1.21853        4.78927
H          2.36986        0.27337        2.95367
H          1.44932       -0.59700        4.19840
H         -0.32975        1.16215        3.98888
H          0.29316       -0.20135        1.33199
H         -2.24730        0.94550        2.53119
H         -0.54489        1.92981        0.22248
H          0.05368        3.80654        1.63631
H         -0.41750        5.16602        3.11128
H         -0.85136        3.48816        5.52910
H         -0.71384        7.03729        5.12762
H         -2.27362        7.23189        3.46235
H         -3.14289        4.46967        4.25195
H         -2.87594        4.31619        1.89997
H         -4.50049        6.62161        3.89343
H         -3.14446        7.41069        6.34602
H          1.05486        4.61813        6.45944
H          0.95895        5.91975        5.26488
H          2.50468        4.43216        4.57039
H         -2.89879        2.26814        0.23336
H         -2.49853       -0.78394        1.00742
H         -0.13833       -1.77764        2.89853
H          1.93800        2.13525        4.52453
