24
-686.53869410
C         -1.38869        2.17014       -1.64266
C         -0.60762        1.23938       -0.74363
C          0.63352        1.88719       -0.14280
C          1.35694        0.85135        0.68291
C          1.70883       -0.33564       -0.18423
C          0.46810       -0.87437       -0.88933
O         -0.20093        0.14759       -1.57685
O         -0.40943       -1.46271        0.03802
O          2.23636       -1.40173        0.59142
O          2.57873        1.33560        1.22099
O          0.30779        2.95735        0.73865
O         -0.58467        2.71668       -2.67566
H         -1.76714        3.00823       -1.06131
H         -2.24232        1.62463       -2.05000
H         -1.25684        0.88123        0.05917
H          1.28633        2.23257       -0.94678
H          0.69054        0.52634        1.48842
H          2.42843       -0.01325       -0.94175
H          0.75437       -1.59302       -1.65844
H          0.15488       -1.89937        0.68983
H          2.89512       -1.01232        1.17778
H          2.36036        2.13883        1.70640
H          0.18422        3.74862        0.20694
H         -0.23379        1.96726       -3.16770
