40
-1161.24536897
O          8.05035       -0.87697        8.02453
C          7.79452       -1.96453        7.26062
O          8.13259       -3.08325        7.55112
C          7.07573       -1.56544        5.96823
O          7.99565       -0.90060        5.14559
C          6.50779       -2.75215        5.23211
C          5.58524       -2.31100        4.08183
H          4.58130       -2.71634        4.26251
O          6.11055       -2.83723        2.88193
C          5.42041       -0.78664        3.99572
H          6.30424       -0.37416        3.51091
N          4.25303       -0.40209        3.21208
C          4.23813       -0.39551        1.85544
C          3.01090        0.19995        1.21522
O          5.17002       -0.83677        1.18582
C          5.20584       -0.16511        5.37491
H          4.17326       -0.37772        5.66326
O          6.03110       -0.71223        6.40702
C          5.41739        1.34670        5.38315
H          4.80294        1.79028        4.60024
O          6.78392        1.64873        5.10932
C          5.04818        1.98503        6.72976
H          4.97538        3.06146        6.57474
O          6.09678        1.80796        7.67239
C          3.73305        1.47800        7.29053
O          2.76021        1.56583        6.24905
H          8.56141       -1.19860        8.78166
H          7.81849        0.05432        5.21828
H          5.97404       -3.37604        5.94584
H          7.32206       -3.33422        4.80850
H          5.85822       -2.24202        2.15476
H          3.44185       -0.05344        3.69692
H          2.22050        0.42087        1.92822
H          2.64256       -0.49001        0.46127
H          3.30273        1.11909        0.71117
H          7.13682        1.97054        5.95417
H          6.28683        0.85712        7.71269
H          3.45750        2.09213        8.14779
H          3.85717        0.44680        7.63350
H          1.89022        1.47293        6.64521
