40
-1161.25087818
O          7.03629        5.32542        8.49208
C          6.91156        6.23297        7.50869
O          6.99614        5.98040        6.33234
C          6.63300        7.62299        8.08205
O          7.59250        7.85402        9.08298
C          6.69837        8.70087        7.01985
C          6.18244       10.00623        7.60348
H          6.17276       10.78412        6.84076
O          7.04883       10.43134        8.65725
C          4.73244        9.81061        8.06152
H          4.40222       10.72234        8.56245
N          3.88946        9.64099        6.89479
C          3.42541       10.72109        6.19849
C          2.56693       10.40068        5.00024
O          3.68205       11.86636        6.54142
C          4.54277        8.60929        8.99378
H          3.51307        8.26991        8.85221
O          5.31888        7.46458        8.60618
C          4.60027        8.97659       10.47775
H          3.78228        9.69029       10.60833
O          5.78385        9.66252       10.88729
C          4.30819        7.81883       11.43761
H          3.36738        7.35267       11.13868
O          4.07209        8.35310       12.73363
C          5.37353        6.72976       11.48131
O          6.68926        7.28011       11.64044
H          7.20532        4.47646        8.05749
H          7.71863        8.82633        9.08962
H          6.10492        8.40073        6.15958
H          7.72961        8.81352        6.69006
H          6.55240       10.41368        9.50075
H          3.69926        8.71298        6.55681
H          2.48585        9.33462        4.80235
H          2.98789       10.89942        4.13113
H          1.57400       10.81100        5.16883
H          6.37517        8.95640       11.22668
H          4.82895        8.90770       12.95233
H          5.32958        6.12041       10.58227
H          5.16600        6.10910       12.35133
H          7.13786        7.19423       10.78248
