45
-1296.693177
C         -4.15841       -0.15582      -15.67303
C         -3.45984        1.16831      -15.90423
C         -4.31193        2.13909      -16.73180
C         -3.44406        3.13971      -17.51202
C         -2.14290        3.35944      -16.77116
C         -1.40033        2.01899      -16.65148
O         -2.23861        0.90543      -16.58494
O         -0.59543        2.14730      -15.48717
C          0.36272        1.09586      -15.32079
C          0.30971        0.60371      -13.87869
O          1.34114       -0.36486      -13.66004
C          2.64283        0.09280      -13.88677
C          2.79294        0.60135      -15.31515
C          1.74283        1.65129      -15.59888
O          1.92683        2.04624      -16.95618
O          4.09954        1.14210      -15.42591
O          2.94459        1.11254      -12.96615
C         -0.97623       -0.12074      -13.53965
O         -1.14439       -1.28956      -14.31904
O         -2.49600        3.90253      -15.50668
O         -3.07943        2.68640      -18.80472
O         -5.25926        2.79581      -15.89617
O         -5.30720        0.01320      -14.85746
H         -3.48397       -0.83712      -15.15944
H         -4.41451       -0.59423      -16.64317
H         -3.26418        1.63223      -14.93380
H         -4.90122        1.57188      -17.45559
H         -3.99330        4.08400      -17.55646
H         -1.50712        4.05500      -17.32361
H         -0.77068        1.85163      -17.52400
H          0.12540        0.26852      -15.99189
H          0.44180        1.45394      -13.20351
H          3.28305       -0.77543      -13.72504
H          2.65634       -0.23759      -16.00342
H          1.90993        2.50331      -14.93418
H          1.46697        2.88162      -17.08057
H          4.11907        1.63161      -16.25644
H          3.70975        1.57635      -13.33116
H         -1.82579        0.52481      -13.74583
H         -0.96877       -0.35413      -12.47241
H         -0.36682       -1.83377      -14.15616
H         -1.76876        3.67766      -14.91143
H         -3.88332        2.55969      -19.31621
H         -4.74052        3.34412      -15.29310
H         -5.72812        0.84306      -15.11147
