30
-819.14580165
C          1.53875       -3.44819       -4.08967
C          1.00426       -4.09254       -2.80084
C         -0.26298       -3.42748       -2.29374
C          0.02645       -2.01759       -1.75748
C          1.52276       -1.73869       -1.57270
C          2.41348       -2.93157       -1.19275
O          1.94698       -4.15895       -1.73043
N          1.73582       -0.63083       -0.65421
C          1.45716       -0.74903        0.68189
O          0.85230       -1.70970        1.14017
C          1.95005        0.38671        1.54353
O         -0.50795       -1.08279       -2.69759
O         -0.86765       -4.24412       -1.30709
O          2.95595       -3.53249       -4.20628
H          1.05072       -3.93661       -4.93594
H          1.29433       -2.39105       -4.14788
H          0.78070       -5.14094       -2.99634
H         -0.99208       -3.32799       -3.09766
H         -0.48415       -1.93398       -0.80101
H          1.88299       -1.38509       -2.53728
H          2.43514       -3.05944       -0.11492
H          2.42373        0.05577       -0.91365
H          1.19488        0.60875        2.29141
H          2.85030        0.05928        2.06137
H          2.17779        1.28295        0.97171
H         -0.45281       -0.21197       -2.29089
H         -0.18892       -4.42955       -0.64735
H          3.21248       -4.43535       -3.98952
O          3.73559       -2.67921       -1.58072
H          3.74104       -2.75778       -2.54822
