45
-1296.68871137
C         -0.64348        3.56367        9.49351
C         -1.41403        2.95309       10.65526
C         -0.70556        1.75948       11.28497
C         -0.89555        0.45895       10.48659
C         -2.09240        0.47739        9.54190
C         -3.19168        1.36324       10.08344
O         -2.78485        2.68980       10.27356
O         -5.72016        1.81951       15.41541
C         -5.90684        1.98922       14.02267
C         -4.64752        1.58826       13.25995
O         -3.60784        2.55157       13.47333
C         -3.93870        3.87395       13.05322
C         -5.13249        4.37885       13.85187
C         -6.32156        3.42676       13.71584
O         -6.81437        3.44730       12.38142
O         -4.68034        4.47318       15.20294
O         -2.82305        4.66887       13.25200
C         -4.84736        1.28993       11.78537
O         -3.62839        0.75076       11.28250
O         -2.56715       -0.83220        9.27231
O          0.31166        0.22920        9.74721
O         -1.04342        1.58519       12.64524
O         -0.34222        2.68873        8.42375
H          0.26688        4.00919        9.90984
H         -1.24713        4.36410        9.07034
H         -1.47768        3.72527       11.42465
H          0.36619        1.97040       11.26619
H         -1.03684       -0.33107       11.22532
H         -1.78061        0.89964        8.59050
H         -4.02554        1.41241        9.37952
H         -6.72719        1.33146       13.73671
H         -4.26783        0.68072       13.72929
H         -4.15263        3.89031       11.98619
H         -5.39974        5.36711       13.46527
H         -7.10087        3.70505       14.43142
H         -7.21905        4.30419       12.21670
H         -5.31886        4.98751       15.70546
H         -2.71587        4.75159       14.20834
H         -5.13287        2.17700       11.22579
H         -5.64317        0.54865       11.67808
H         -5.02014        2.43379       15.67128
H         -2.99557       -1.12606       10.08500
H          0.16953       -0.56347        9.21716
H         -1.96373        1.85604       12.78549
H          0.18966        1.95503        8.76543
