24
-686.53003391
C         -1.74180        1.49976        0.60297
C         -0.52254        0.60415        0.55958
C          0.67979        1.17765        1.32645
C          1.97775        0.85101        0.58467
C          1.89456       -0.55978        0.01682
C          0.74174       -0.62661       -1.01881
O         -0.18449        0.44964       -0.81624
O          0.11356       -1.85776       -0.96793
O          1.68584       -1.52609        1.04426
O          2.24381        1.79188       -0.43742
O          0.79355        0.57855        2.62617
O         -1.49531        2.74995       -0.01333
H         -2.00842        1.71150        1.63873
H         -2.58078        0.98262        0.13309
H         -0.78109       -0.37025        0.98663
H          0.60135        2.26240        1.40654
H          2.80062        0.91552        1.29440
H          2.82480       -0.81472       -0.48677
H          1.10903       -0.45533       -2.02722
H          0.38510       -2.24653       -0.12051
H          1.36578       -1.06398        1.83408
H          1.44421        1.83189       -0.97558
H          0.02797        0.82877        3.15219
H         -1.30502        2.56199       -0.93775
