45
-1296.69028373
C          2.48962        8.88574        4.90283
C          1.09640        8.37994        4.65847
C          0.99777        7.65982        3.30572
C         -0.39882        7.87528        2.70909
C         -1.42639        7.87504        3.83241
C         -1.15532        9.08952        4.73487
O          0.20012        9.50071        4.69080
O          0.80363        7.87860        7.89024
C         -0.03050        8.77925        8.59940
C         -0.42262       10.01879        7.78103
O         -0.63383       11.15871        8.61988
C         -1.26146       10.81353        9.85502
C         -0.27446       10.03851       10.73792
C          0.67771        9.25675        9.85720
O          1.19889        8.17206       10.60254
O          0.40841       10.98706       11.54737
O         -1.71952       11.96044       10.46147
C         -1.67305        9.83319        6.93082
O         -1.57871        8.73740        6.01942
O         -1.28047        6.64643        4.53265
O         -0.48474        9.07476        1.95534
O          1.33439        6.29428        3.45184
O          2.60035        9.29055        6.27106
H          2.68810        9.72990        4.23870
H          3.18521        8.07457        4.68002
H          0.82288        7.67841        5.44752
H          1.71510        8.07805        2.59720
H         -0.60137        7.05643        2.02186
H         -2.43592        7.96760        3.42789
H         -1.71363        9.95914        4.38381
H         -0.91106        8.19567        8.88204
H          0.41838       10.27600        7.13791
H         -2.13070       10.18436        9.64728
H         -0.83302        9.33551       11.36160
H          1.48077        9.93871        9.55302
H          1.54401        7.55316        9.94584
H          1.00540       10.50120       12.12386
H         -0.99635       12.27878       11.01799
H         -1.86730       10.75985        6.38696
H         -2.52893        9.62351        7.57161
H          1.49260        8.39833        7.43988
H         -1.56785        6.81750        5.44007
H         -0.13570        9.77545        2.51820
H          0.61517        5.91031        3.97135
H          3.49810        9.59402        6.43109
