45
-1296.694652
C         -2.64591        8.45969       10.17989
C         -1.25077        8.87408       10.61417
C         -1.17502       10.30602       11.11897
C          0.25795       10.64064       11.45929
C          1.14216       10.42204       10.24553
C          0.93846        9.01457        9.69674
O         -0.41649        8.75904        9.45408
O          1.51244        8.13643       10.65054
C          1.99199        6.87948       10.13743
C          0.85395        6.03160        9.57795
O         -0.08243        5.71684       10.60548
C          0.47050        4.98473       11.70119
C          1.60578        5.77590       12.35388
C          2.65681        6.21001       11.33148
O          3.37254        5.09527       10.80346
O          1.07593        6.89166       13.05212
O         -0.54362        4.75112       12.60708
C          1.31074        4.77786        8.81451
O          2.42365        5.03731        7.97264
O          2.50161       10.68307       10.54741
O          0.28886       11.99335       11.88458
O         -2.01358       10.43497       12.25892
O         -3.51256        8.28796       11.28194
H         -2.57159        7.49724        9.67834
H         -3.03185        9.19400        9.46459
H         -0.92026        8.18056       11.39073
H         -1.51092       10.97493       10.31817
H          0.58361        9.98229       12.27405
H          0.85364       11.13281        9.47180
H          1.44546        8.88796        8.73801
H          2.73056        7.07207        9.35721
H          0.29816        6.65618        8.88260
H          0.82689        4.01085       11.36691
H          2.07198        5.13470       13.10468
H          3.33613        6.92292       11.80633
H          3.88402        4.70086       11.51659
H          0.92048        7.56982       12.37837
H         -0.68069        5.58708       13.07339
H          0.48997        4.46338        8.17418
H          1.53142        3.96424        9.49993
H          3.20228        4.95842        8.53332
H          2.81028        9.91241       11.04004
H          1.21680       12.23520       11.98250
H         -1.83221       11.30302       12.63805
H         -3.43686        9.08243       11.82325
