45
-1296.705971
C         -2.42662       -2.74813        9.12307
C         -1.22537       -3.61354        8.82867
C         -1.58077       -5.08470        8.72065
C         -0.30570       -5.86065        8.49307
C          0.68536       -5.58700        9.60818
C          0.91453       -4.08633        9.76413
O         -0.31567       -3.41171        9.91521
O          1.63039       -3.66355        8.63231
C          2.44907       -2.49080        8.79397
C          3.75103       -2.86167        9.51190
O          4.58166       -1.71057        9.69000
C          3.98701       -0.66162       10.39820
C          2.73231       -0.19732        9.68315
C          1.75086       -1.34205        9.50490
O          0.66461       -0.80633        8.77185
O          2.15245        0.82512       10.47479
O          3.68621       -1.09200       11.70455
C          4.61587       -3.80897        8.70271
O          4.98745       -3.25106        7.45692
O          1.89858       -6.28315        9.38093
O         -0.65074       -7.23551        8.43379
O         -2.48239       -5.24165        7.63991
O         -2.08552       -1.36149        9.07445
H         -2.76760       -2.94910       10.13706
H         -3.22646       -2.98878        8.42501
H         -0.76084       -3.29151        7.89114
H         -2.03489       -5.41825        9.66142
H          0.12680       -5.53293        7.54046
H          0.27833       -5.97110       10.54306
H          1.46393       -3.87966       10.68299
H          2.68415       -2.18341        7.77553
H          3.53263       -3.30991       10.48457
H          4.73520        0.13204       10.41643
H          3.01360        0.18320        8.69664
H          1.42337       -1.65798       10.49693
H         -0.16793       -1.18527        9.09775
H          1.26613        0.95601       10.11476
H          3.04205       -0.45679       12.04463
H          4.07453       -4.72494        8.48745
H          5.49323       -4.06375        9.30162
H          5.42796       -2.41938        7.66112
H          2.33288       -5.80234        8.66518
H          0.17693       -7.72935        8.41571
H         -2.51047       -6.18589        7.44695
H         -2.21175       -1.05792        8.17116
