24
-686.53172578
C         -0.88355        1.23767       -2.38446
C         -0.86286        0.98757       -0.88735
C          0.21405        1.80458       -0.16369
C          1.12203        0.91019        0.64905
C          1.61773       -0.18354       -0.26552
C          0.43304       -1.06514       -0.64319
O         -0.80417       -0.41723       -0.57413
O          0.70435       -1.59220       -1.93841
O          2.60778       -0.92538        0.43533
O          2.18181        1.71601        1.13106
O         -0.44816        2.76025        0.65136
O          0.35144        0.97566       -3.02479
H         -1.10096        2.29358       -2.54402
H         -1.69354        0.65127       -2.82635
H         -1.82275        1.30045       -0.47810
H          0.84550        2.30783       -0.90162
H          0.55896        0.47286        1.47986
H          2.03928        0.27310       -1.16353
H          0.36402       -1.88420        0.07262
H          0.04740       -2.27476       -2.11433
H          3.11467       -1.42611       -0.20999
H          2.85359        1.11005        1.46346
H          0.24402        3.25044        1.10895
H          0.50613        0.02294       -2.95492
