24
-686.52389853
C         -2.45699       -2.86937       -0.98259
C         -2.70506       -1.71245       -1.93037
C         -1.60930       -0.64924       -1.93357
C         -1.22961       -0.16986       -0.53739
C         -0.25977        1.00909       -0.59559
C          0.39675        1.22945        0.75387
O          0.94826        0.34098        1.36340
O         -0.94325        2.20589       -0.92468
O         -2.38309        0.22340        0.20958
O         -2.04337        0.44822       -2.74292
O         -3.96871       -1.10438       -1.64710
O         -3.43724       -3.87395       -1.15804
H         -1.49181       -3.33080       -1.19008
H         -2.45021       -2.50518        0.04937
H         -2.80046       -2.11019       -2.94081
H         -0.71361       -1.06284       -2.40241
H         -0.74224       -0.98075        0.00532
H          0.53692        0.78600       -1.31340
H          0.34482        2.26367        1.13236
H         -1.34691        2.03362       -1.78998
H         -2.45626        1.17944        0.06909
H         -3.01090        0.40485       -2.71793
H         -3.84241       -0.65930       -0.79333
H         -4.28806       -3.42319       -1.13111
