24
-686.52604639
C         -0.87478        2.93593        0.46292
C         -0.56185        1.47161        0.69998
C          0.68253        1.21135        1.57832
C          1.89077        0.85729        0.71911
C          1.55799       -0.38036       -0.13045
C          0.10091       -0.39337       -0.57767
O         -0.43106        0.91963       -0.61143
O          0.04161       -0.92284       -1.85872
O          1.72436       -1.58045        0.63509
O          2.35272        1.92395       -0.07289
O          0.42237        0.17141        2.51429
O          0.10480        3.55364       -0.36900
H         -0.87705        3.47734        1.40578
H         -1.86199        3.02312        0.00720
H         -1.40537        1.00580        1.22205
H          0.90080        2.11090        2.15613
H          2.70103        0.57118        1.39540
H          2.19194       -0.37479       -1.01691
H         -0.48476       -0.98795        0.13599
H         -0.88636       -1.02347       -2.09233
H          2.66752       -1.74443        0.72959
H          1.64716        2.58669       -0.15354
H          0.79621       -0.64770        2.16100
H          0.01558        3.12971       -1.23101
