45
-1296.698303
C         -8.49595        5.06877        1.33718
C         -7.51322        6.12817        0.89276
C         -8.18893        7.36460        0.30899
C         -7.12914        8.32111       -0.18961
C         -6.26676        7.60989       -1.20603
C         -5.67495        6.35339       -0.59209
O         -6.69953        5.50674       -0.11383
O         -4.81569        6.75547        0.43385
C         -3.76435        5.82070        0.70731
C         -3.45509        5.87805        2.21178
O         -2.20107        6.48541        2.48948
C         -2.01164        7.73174        1.84868
C         -1.99601        7.56645        0.29878
C         -2.55597        6.20481       -0.13479
O         -1.56102        5.20451       -0.10859
O         -2.67045        8.66135       -0.30609
O         -3.00090        8.62784        2.24482
C         -3.34286        4.50135        2.83371
O         -2.21349        3.79991        2.31551
O         -5.19519        8.41817       -1.65974
O         -7.68481        9.44495       -0.85384
O         -8.94352        8.06271        1.29292
O         -9.37539        4.68101        0.29592
H         -9.11387        5.46049        2.14230
H         -7.93634        4.21394        1.72414
H         -6.89564        6.42945        1.74391
H         -8.82332        7.06764       -0.52854
H         -6.50960        8.63910        0.65484
H         -6.89849        7.30995       -2.04701
H         -5.14438        5.76799       -1.34543
H         -4.09765        4.81441        0.43756
H         -4.26146        6.43900        2.68997
H         -1.03712        8.05384        2.21398
H         -0.96123        7.59098       -0.03804
H         -2.88315        6.31838       -1.17296
H         -1.73167        4.62351        0.64889
H         -3.53302        8.37988       -0.65183
H         -3.26041        9.07171        1.42011
H         -4.22212        3.90633        2.59603
H         -3.26423        4.59838        3.91694
H         -1.44404        4.26548        2.66374
H         -5.57234        9.27860       -1.88067
H         -8.27304        9.87398       -0.22284
H         -9.81973        7.66894        1.32926
H         -8.82253        4.34911       -0.41884
