24
-686.52596779
C         -2.01209        1.14814       -0.50258
C         -0.91181        0.57892        0.37894
C          0.27318        1.54480        0.49528
C          1.48663        0.74055        0.89867
C          1.85145       -0.21806       -0.21978
C          0.58999       -0.65019       -0.98172
O         -0.52330       -0.70988       -0.09003
O          0.74364       -1.87697       -1.58478
O          2.47014       -1.39831        0.27398
O          2.61192        1.55785        1.16578
O          0.05807        2.52053        1.50201
O         -2.40377        2.44673       -0.04132
H         -2.85746        0.46154       -0.53632
H         -1.64334        1.27977       -1.51874
H         -1.29336        0.43374        1.39190
H          0.46778        2.04117       -0.46321
H          1.22044        0.14706        1.77946
H          2.51633        0.30061       -0.91561
H          0.37404        0.07533       -1.77024
H          1.32334       -2.39035       -1.00641
H          3.29450       -1.14112        0.69681
H          2.29826        2.26359        1.74350
H         -0.71351        3.02454        1.21564
H         -3.09418        2.32639        0.61558
