24
-686.52648957
C         -1.81541        0.94947        1.56610
C         -1.40182       -0.27002        0.76697
C         -0.08655       -0.86074        1.26574
C          0.13276       -2.25715        0.68587
C          1.58168       -2.70731        0.86597
C          1.70782       -4.16060        0.48287
O          2.17563       -4.97216        1.25533
O          2.01883       -2.53933        2.20019
O         -0.75581       -3.18549        1.27993
O         -0.13032       -0.92280        2.68825
O         -1.25429        0.05415       -0.60881
O         -0.81596        1.96453        1.48248
H         -2.71531        1.36778        1.12055
H         -2.02153        0.67693        2.59936
H         -2.18458       -1.02625        0.83243
H          0.72402       -0.20511        0.93026
H         -0.08840       -2.22625       -0.38228
H          2.21400       -2.11962        0.18906
H          1.35678       -4.44565       -0.51892
H          2.31627       -3.42234        2.47809
H         -0.83155       -2.91963        2.20586
H          0.69816       -1.35203        2.95391
H         -0.80304        0.90736       -0.62449
H         -0.14627        1.74737        2.13748
