45
-1296.695323
C         -0.43297       11.94591       -1.65014
C         -1.78981       11.40228       -1.26517
C         -2.84791       11.64692       -2.32438
C         -4.17714       11.14646       -1.80629
C         -4.51744       11.83043       -0.49545
C         -3.37205       11.66992        0.49731
O         -2.15041       12.08634       -0.05211
O         -3.37611       10.31311        0.87782
C         -2.63384        9.99773        2.06726
C         -1.27950        9.40632        1.66600
O         -1.45953        8.13054        1.05613
C         -2.11894        7.16319        1.87991
C         -3.53748        7.65543        2.16130
C         -3.53102        9.02838        2.83225
O         -3.03738        8.96435        4.16884
O         -4.27846        7.68056        0.94906
O         -2.14769        5.96737        1.18813
C         -0.17146        9.45686        2.71506
O         -0.31908        8.65380        3.86688
O         -5.74299       11.35324        0.03115
O         -5.15146       11.42120       -2.79862
O         -2.45515       10.95896       -3.49595
O          0.51896       11.73237       -0.62101
H         -0.52838       13.00973       -1.88711
H         -0.07601       11.42275       -2.53218
H         -1.71284       10.32781       -1.07583
H         -2.92876       12.72481       -2.51030
H         -4.09440       10.06498       -1.64363
H         -4.65628       12.89463       -0.68423
H         -3.52524       12.29799        1.37754
H         -2.49105       10.90430        2.66270
H         -0.90367       10.04124        0.86370
H         -1.55129        7.00500        2.79348
H         -4.03996        6.93417        2.80812
H         -4.54562        9.43276        2.82440
H         -3.58124        8.34383        4.66491
H         -3.86271        8.36278        0.40351
H         -2.83116        6.06533        0.51255
H         -0.03378       10.51361        2.97963
H          0.73918        9.12007        2.22378
H         -1.19191        8.83517        4.24014
H         -5.55323       10.48416        0.40758
H         -6.01003       11.20877       -2.41498
H         -3.22134       10.95773       -4.08122
H          0.19658       12.21431        0.14674
