45
-1296.699000
C          2.24966        4.19043        0.06640
C          1.86935        2.78576        0.50322
C          0.42415        2.36979        0.24394
C         -0.55054        2.97676        1.25117
C         -0.05565        2.76157        2.67717
C          1.37554        3.24815        2.81430
O          2.22682        2.57618        1.88870
O          1.77506        2.85978        4.08983
C          3.09660        3.24850        4.46542
C          3.80052        2.02293        5.03528
O          5.07441        2.39168        5.57654
C          5.03367        3.38001        6.57086
C          4.38791        4.65357        6.05241
C          3.00999        4.35202        5.49227
O          2.46357        5.49843        4.86100
O          4.31644        5.65770        7.05037
O          4.28292        2.99399        7.70246
C          4.13463        0.96268        3.99048
O          3.00317        0.32583        3.43785
O         -0.12757        1.37200        2.95704
O         -0.65120        4.36725        0.97092
O          0.30392        0.95983        0.23572
O          3.64097        4.40627        0.24880
H          1.65850        4.94640        0.58158
H          2.05520        4.28679       -1.00045
H          2.50477        2.08403       -0.03509
H          0.14041        2.71883       -0.74949
H         -1.50995        2.47021        1.12771
H         -0.67489        3.33305        3.37666
H          1.44881        4.33031        2.68443
H          3.64705        3.60943        3.59274
H          3.16553        1.58633        5.81056
H          6.07524        3.55577        6.83834
H          5.01134        5.05402        5.25360
H          2.35834        4.01197        6.30403
H          2.58275        6.22816        5.48056
H          3.99713        5.21481        7.84630
H          4.76245        2.29328        8.15521
H          4.73211        0.19860        4.48437
H          4.75634        1.42401        3.21761
H          2.65284        0.92698        2.76502
H          0.48323        1.19966        3.68844
H         -1.38258        4.72479        1.48305
H          0.26806        0.68446        1.16311
H          3.84369        4.11768        1.14397
