45
-1296.69096114
C         -1.49540        1.32508        6.22425
C         -1.75102        2.09425        7.50213
C         -0.64983        1.80240        8.53574
C         -1.24978        1.77653        9.94537
C         -2.30820        2.86316       10.05718
C         -3.46076        2.52773        9.09523
O         -3.03770        1.71485        8.01395
O         -5.27134        2.18920        5.63014
C         -4.61583        3.41483        5.86020
C         -5.45378        4.24829        6.80573
O         -4.92830        5.58249        6.78434
C         -5.22211        6.26630        5.58686
C         -5.20060        5.35922        4.34577
C         -4.25661        4.19054        4.58377
O         -2.89379        4.63348        4.62768
O         -6.46616        4.79546        4.07276
O         -6.49888        6.85923        5.62185
C         -5.35484        3.72636        8.21894
O         -4.00085        3.75458        8.68533
O         -1.68517        4.09723        9.72094
O         -1.80349        0.51180       10.27382
O          0.41129        2.72904        8.40486
O         -2.35285        1.66087        5.14467
H         -1.65284        0.26473        6.41987
H         -0.44529        1.47230        5.95862
H         -1.74506        3.16917        7.29869
H         -0.21844        0.81667        8.35312
H         -0.44868        1.96413       10.65745
H         -2.70992        2.90237       11.07149
H         -4.22074        1.93199        9.60142
H         -3.67532        3.23873        6.37225
H         -6.50249        4.23865        6.50259
H         -4.44971        7.03220        5.51143
H         -4.84366        5.95244        3.49994
H         -4.32928        3.51290        3.73611
H         -2.78646        5.11122        5.45843
H         -7.11887        5.47985        4.26264
H         -6.52181        7.46033        6.37273
H         -5.73700        2.70512        8.22607
H         -5.94751        4.34812        8.88951
H         -4.56125        1.55914        5.44679
H         -2.39871        4.67331        9.41293
H         -2.38365        0.27054        9.54222
H          0.05522        3.56774        8.72732
H         -2.17257        2.57594        4.88763
