24
-686.53845059
C         -2.31427        0.93153       -0.61144
C         -1.03417        0.45878        0.04569
C          0.07735        1.49484       -0.02853
C          1.36655        0.90285        0.49487
C          1.68982       -0.37735       -0.23684
C          0.51095       -1.32207       -0.11788
O         -0.65004       -0.72436       -0.66034
O          0.81891       -2.45866       -0.85956
O          2.85718       -0.91465        0.36069
O          2.37896        1.88223        0.32898
O         -0.32883        2.60042        0.75853
O         -2.13517        1.16574       -1.99590
H         -2.61788        1.87383       -0.16354
H         -3.09363        0.18553       -0.43547
H         -1.23049        0.22708        1.10010
H          0.21694        1.78721       -1.07290
H          1.23640        0.67094        1.55891
H          1.84444       -0.16805       -1.29950
H          0.33059       -1.56859        0.93760
H          0.12871       -3.11208       -0.71127
H          3.05689       -1.73654       -0.09945
H          3.20869        1.47358        0.59842
H          0.43068        3.19144        0.80638
H         -1.76199        0.35566       -2.35875
