45
-1296.697760
C          3.09242        0.12895       -3.32505
C          2.03144        0.22420       -2.24604
C          0.60301        0.28789       -2.79464
C          0.17637        1.69443       -3.25425
C          0.81601        2.80859       -2.41561
C          1.43252        2.29718       -1.12780
O          2.41172        1.33888       -1.40879
O          0.40376        1.80052       -0.29603
C          0.50515        2.13923        1.08947
C          0.05068        0.94329        1.91287
O          0.05609        1.29596        3.29900
C         -0.78325        2.36696        3.63616
C         -0.40567        3.61686        2.85007
C         -0.39911        3.32057        1.36722
O          0.01760        4.50829        0.71394
O         -1.36571        4.61343        3.16324
O         -2.11854        2.00848        3.38376
C          0.99428       -0.23540        1.79396
O          2.29891        0.08944        2.23933
O         -0.10002        3.84256       -2.06787
O          0.40387        1.92090       -4.63471
O         -0.32764       -0.26523       -1.87842
O          3.13179        1.29252       -4.15194
H          2.87862       -0.71267       -3.98063
H          4.06444       -0.03138       -2.85757
H          2.09157       -0.67991       -1.63502
H          0.55863       -0.35437       -3.67404
H         -0.90224        1.73853       -3.11214
H          1.63786        3.22952       -2.99939
H          1.95424        3.10189       -0.61110
H          1.54303        2.37112        1.33800
H         -0.95538        0.64576        1.60299
H         -0.62127        2.52617        4.70315
H          0.59674        3.93216        3.15427
H         -1.41200        3.04833        1.05476
H         -0.14728        4.39816       -0.23638
H         -1.25236        5.30564        2.50068
H         -2.60450        2.84155        3.32077
H          1.07880       -0.53016        0.75051
H          0.57772       -1.07153        2.36012
H          2.20215        0.38675        3.15011
H         -0.46372        4.19989       -2.88462
H          1.35568        1.79087       -4.77010
H         -0.33193        0.33006       -1.11447
H          3.51630        1.99053       -3.61220
