40
-1161.25929965
O         10.66834       -0.67529       -2.00609
C          9.93477        0.42604       -1.78676
O          9.66192        0.83970       -0.68198
C          9.54807        1.16527       -3.08747
O         10.51793        2.15014       -3.28203
C          9.51051        0.29823       -4.32845
C          8.33785       -0.66641       -4.29524
H          8.49390       -1.39864       -3.49748
O          8.25403       -1.44523       -5.47675
C          7.04625        0.08864       -4.00241
H          6.82193        0.77760       -4.82117
N          5.96127       -0.86303       -3.88529
C          4.70190       -0.59854       -4.31745
C          3.74264       -1.75946       -4.29562
O          4.35027        0.51905       -4.69253
C          7.22728        0.90550       -2.72159
H          7.42406        0.21283       -1.89311
O          8.32092        1.80929       -2.88223
C          6.01322        1.74479       -2.34322
H          5.21479        1.04614       -2.06643
O          5.61047        2.60170       -3.38670
C          6.32872        2.62223       -1.13527
H          6.98397        3.43127       -1.46164
O          6.93095        1.87094       -0.08461
C          5.06669        3.21429       -0.54691
O          5.36456        4.04381        0.56109
H         10.92917       -1.00929       -1.13354
H         10.40384        2.79495       -2.57130
H         10.44366       -0.24544       -4.44993
H          9.39263        0.99021       -5.16449
H          8.15133       -0.84070       -6.21957
H          6.20467       -1.82929       -3.74237
H          4.19918       -2.68742       -3.96156
H          3.34207       -1.89156       -5.29767
H          2.91339       -1.50869       -3.63847
H          5.09102        2.05437       -3.99997
H          7.87096        1.76282       -0.28037
H          4.40299        2.39290       -0.25337
H          4.56297        3.82436       -1.29050
H          5.96201        3.52273        1.10855
