45
-1296.700890
C         -1.91137       -1.10501        5.64588
C         -2.30992       -2.16501        4.63075
C         -2.49828       -3.53590        5.27036
C         -2.69448       -4.57347        4.19032
C         -1.54278       -4.51723        3.21455
C         -1.43717       -3.12252        2.61648
O         -1.22615       -2.19469        3.68809
O         -2.60670       -2.85112        1.91521
C         -2.56663       -1.88421        0.84710
C         -2.26074       -2.56104       -0.48773
O         -2.42695       -1.59412       -1.52955
C         -1.56981       -0.49584       -1.43693
C         -1.77029        0.23348       -0.11583
C         -1.61441       -0.72050        1.05211
O         -1.86837        0.04396        2.22288
O         -0.79821        1.26384       -0.05020
O         -0.23465       -0.92728       -1.55995
C         -3.21795       -3.70607       -0.80942
O         -2.73552       -4.96811       -0.41467
O         -1.69901       -5.45332        2.16917
O         -2.70584       -5.89243        4.71465
O         -3.64753       -3.59219        6.09581
O         -2.89306       -0.95711        6.66974
H         -1.72230       -0.15496        5.14297
H         -0.99366       -1.41436        6.14218
H         -3.23717       -1.87758        4.12456
H         -1.59328       -3.78771        5.83713
H         -3.62797       -4.36023        3.66226
H         -0.61294       -4.70668        3.75921
H         -0.54819       -3.03832        1.99164
H         -3.58638       -1.49646        0.80543
H         -1.23989       -2.95217       -0.49933
H         -1.84352        0.15252       -2.27045
H         -2.78160        0.64957       -0.09463
H         -0.58043       -1.07772        1.05282
H         -1.53666       -0.51005        2.94572
H         -0.80550        1.57717        0.86208
H          0.30617       -0.19943       -1.22656
H         -3.32156       -3.73546       -1.89172
H         -4.20312       -3.49297       -0.38085
H         -2.57143       -4.96848        0.53838
H         -1.97254       -6.28122        2.58357
H         -3.41244       -5.92650        5.36879
H         -3.58525       -2.84480        6.70603
H         -3.61851       -0.43653        6.31273
