40
-1161.25321761
O          0.67689        5.79260        2.22716
C          1.93057        5.73376        1.75165
O          2.39160        4.76754        1.18886
C          2.76286        6.99710        2.02749
O          3.84965        6.96665        1.18181
C          2.05810        8.32505        1.85958
C          1.11221        8.72138        2.98436
H          0.23478        8.06863        2.99480
O          0.71602       10.05230        2.72760
C          1.81776        8.55347        4.32418
H          2.63268        9.28294        4.38819
N          0.92467        8.73209        5.45846
C          0.56190        9.95307        5.91339
C         -0.19447        9.96697        7.21619
O          0.81992       10.99299        5.30362
C          2.39110        7.14297        4.43739
H          1.55699        6.43497        4.43219
O          3.27704        6.85452        3.36436
C          3.21320        6.95078        5.74329
H          3.17844        7.88777        6.30893
O          4.56094        6.60828        5.50373
C          2.60305        5.86085        6.60728
H          2.63957        4.91807        6.04764
O          1.24715        6.21634        6.87600
C          3.33880        5.70271        7.92241
O          2.60005        4.83357        8.78521
H          0.26607        4.93808        2.02142
H          4.00979        6.03519        0.96966
H          1.52824        8.34315        0.90798
H          2.84909        9.07378        1.80840
H          0.73946       10.54133        3.57087
H          0.74397        7.92762        6.04723
H         -0.28071        8.98139        7.66625
H         -1.18717       10.37324        7.03630
H          0.31746       10.63829        7.90127
H          4.67653        6.61972        4.54326
H          1.00287        5.70771        7.66164
H          3.37709        6.66548        8.42993
H          4.35409        5.34994        7.75479
H          2.82148        3.92795        8.55251
