45
-1296.692799
C          1.57726        2.98174        6.18986
C          0.95323        1.86337        6.99370
C          1.87687        1.34370        8.10465
C          2.04506       -0.15159        7.97983
C          2.50100       -0.44940        6.56870
C          1.37999       -0.06213        5.57492
O          0.44635        0.82366        6.15480
O          0.64245       -1.21772        5.27159
C          0.51344       -1.52057        3.88186
C         -0.90032       -2.03569        3.65389
O         -1.05196       -2.45196        2.29266
C         -0.16556       -3.45295        1.87956
C          1.27915       -3.00187        2.05500
C          1.52462       -2.57503        3.48496
O          2.86830       -2.11869        3.54825
O          2.10564       -4.10073        1.70539
O         -0.40910       -4.62594        2.61753
C         -1.93215       -0.94561        3.85983
O         -1.75265        0.11939        2.94084
O          2.85869       -1.82477        6.42744
O          3.01101       -0.54787        8.93886
O          1.30202        1.71256        9.34918
O          2.78343        2.49243        5.60595
H          1.77721        3.82020        6.86313
H          0.87139        3.29776        5.41978
H          0.06668        2.26050        7.48614
H          2.87176        1.78690        8.00286
H          1.08364       -0.64067        8.17120
H          3.40002        0.12480        6.35493
H          1.80042        0.35906        4.66199
H          0.66035       -0.61393        3.29114
H         -1.09910       -2.87087        4.33019
H         -0.38671       -3.60991        0.82278
H          1.46249       -2.14965        1.39401
H          1.38453       -3.44623        4.13418
H          3.11239       -2.06249        4.48621
H          2.98828       -3.87840        2.02563
H          0.38410       -5.16795        2.51230
H         -1.81711       -0.52695        4.85650
H         -2.92846       -1.38354        3.76634
H         -1.79644       -0.27814        2.06490
H          2.00766       -2.27887        6.33040
H          3.29353       -1.43598        8.69252
H          1.86802        1.33351       10.03118
H          3.16277        3.19080        5.06654
