24
-686.52347382
C          0.28605        0.03103        3.38159
C          1.26369       -0.90330        2.68267
C          2.45711       -0.19821        2.05432
C          2.13977        0.49692        0.72900
C          1.01623       -0.20446       -0.01383
C          0.90908       -1.66249        0.40113
O          0.56269       -1.75055        1.76534
O         -0.10862       -2.29292       -0.32629
O          1.26510       -0.07527       -1.40274
O          1.83622        1.86570        1.01397
O          3.43304       -1.21611        1.85381
O         -0.35246        0.97714        2.55022
H          0.81863        0.51527        4.20792
H         -0.50501       -0.58249        3.80754
H          1.67933       -1.55592        3.45564
H          2.81812        0.55857        2.75710
H          3.03259        0.44419        0.10056
H          0.06925        0.26444        0.27120
H          1.82629       -2.20856        0.17837
H         -0.93594       -2.00459        0.07895
H          0.62979       -0.65240       -1.84291
H          1.60476        2.28657        0.17849
H          4.21963       -0.80615        1.48113
H          0.32867        1.55030        2.17020
