45
-1296.689203
C          2.36974       -4.06334        7.27344
C          2.25706       -5.51938        6.85984
C          1.18020       -5.76409        5.80586
C          0.81907       -7.24142        5.80493
C          0.22662       -7.66130        7.15231
C          0.68286       -6.65193        8.21278
O          2.04739       -6.35201        8.02084
O          0.63622       -7.17190        9.51377
C         -0.61625       -6.99501       10.19178
C         -0.38093       -6.12116       11.41307
O         -1.60844       -5.96864       12.12046
C         -2.14812       -7.19490       12.56047
C         -2.42526       -8.15916       11.41125
C         -1.17584       -8.35594       10.56436
O         -1.53897       -9.08456        9.41440
O         -2.96061       -9.36514       11.90514
O         -1.27862       -7.87051       13.44156
C          0.06781       -4.71537       11.05228
O          1.40771       -4.67119       10.56525
O          0.56912       -8.99305        7.50030
O         -0.00053       -7.56283        4.68863
O          1.73021       -5.38070        4.56149
O          1.21001       -3.60899        7.94823
H          2.49714       -3.46233        6.37276
H          3.25689       -3.94056        7.89822
H          3.20231       -5.84527        6.42345
H          0.29130       -5.15936        6.02574
H          1.73998       -7.80581        5.64980
H         -0.86450       -7.64684        7.10081
H          0.08213       -5.73989        8.14812
H         -1.33462       -6.49833        9.53128
H          0.37570       -6.58974       12.04919
H         -3.07956       -6.92972       13.05840
H         -3.19460       -7.72008       10.77604
H         -0.42109       -8.88897       11.15408
H         -0.73311       -9.25492        8.90053
H         -2.35325       -9.66903       12.58884
H         -1.25911       -7.38727       14.27313
H          0.02014       -4.09570       11.94514
H         -0.62209       -4.29685       10.31261
H          1.61177       -5.53773       10.18477
H          1.49093       -8.98531        7.78571
H         -0.90206       -7.29296        4.89094
H          1.17835       -5.79928        3.88925
H          1.32888       -3.82961        8.88751
