40
-1161.24576747
O         10.46906        4.02022        4.13822
C          9.97605        2.93147        4.75139
O          9.68214        2.89970        5.92460
C          9.75904        1.75839        3.78708
O         10.40798        1.94536        2.56540
C         10.27322        0.44908        4.34578
C          9.47291       -0.09748        5.51519
H          9.77993        0.39410        6.43909
O          9.81295       -1.47897        5.55842
C          7.95320        0.12285        5.34875
H          7.47659       -0.84902        5.45552
N          7.41287        0.95149        6.40223
C          6.40366        0.51451        7.19543
C          5.94971        1.47824        8.26119
O          5.87681       -0.59134        7.06158
C          7.58151        0.63119        3.96279
H          6.56925        1.02930        3.97513
O          8.35649        1.78164        3.58235
C          7.64842       -0.52610        2.94659
H          8.29044       -1.32247        3.33016
O          8.11075       -0.10247        1.66998
C          6.24965       -1.10437        2.68835
H          6.39134       -2.01905        2.10368
O          5.47739       -0.16215        1.96415
C          5.42473       -1.42408        3.92159
O          6.08606       -2.37410        4.74392
H         10.50238        4.72325        4.80454
H         10.28219        2.86295        2.29523
H         11.32072        0.56417        4.61722
H         10.23082       -0.27312        3.53059
H          9.32113       -1.88575        6.27915
H          7.83891        1.84870        6.57445
H          6.56160        2.37533        8.31120
H          5.96970        0.96752        9.22042
H          4.91833        1.75681        8.05640
H          8.67867        0.66843        1.79724
H          6.07100        0.16465        1.27579
H          4.46230       -1.80910        3.57968
H          5.22531       -0.50358        4.47327
H          5.88810       -2.11341        5.65388
