45
-1296.693383
C          0.33998        2.24881        0.87330
C          1.68165        2.21602        0.16192
C          2.83897        2.61322        1.06138
C          4.12063        2.63556        0.26229
C          3.97051        3.58984       -0.90280
C          2.74659        3.20395       -1.72975
O          1.59386        3.17695       -0.90672
O          3.00230        1.96996       -2.33255
C          1.86591        1.39122       -2.97236
C          2.34272        0.11800       -3.64544
O          1.18603       -0.59374       -4.10014
C          0.20121        0.15521       -4.79308
C          0.64649        1.55695       -5.16962
C          1.17234        2.32406       -3.96274
O          0.06576        2.99302       -3.37739
O          1.67875        1.50379       -6.13686
O         -0.08860       -0.49478       -6.00710
C          3.04261       -0.80805       -2.67413
O          2.26250       -1.06688       -1.51895
O          5.18480        3.53495       -1.62975
O          5.14890        3.05304        1.14815
O          2.91675        1.68023        2.12878
O          0.18430        1.16376        1.76270
H         -0.44955        2.16570        0.12763
H          0.22564        3.21364        1.37914
H          1.85716        1.21183       -0.23355
H          2.65097        3.62133        1.44949
H          4.32149        1.63120       -0.12056
H          3.79411        4.59398       -0.50584
H          2.52280        3.96955       -2.47931
H          1.12916        1.09490       -2.22038
H          3.00797        0.35070       -4.47888
H         -0.69043        0.20143       -4.16256
H         -0.22695        2.09386       -5.54719
H          1.90791        3.03332       -4.35615
H          0.29034        3.16922       -2.45263
H          1.42075        0.80892       -6.75574
H         -0.20290       -1.42993       -5.81039
H          3.96122       -0.33841       -2.33367
H          3.29285       -1.73342       -3.19875
H          1.44410       -1.47074       -1.82552
H          5.19399        4.24596       -2.27681
H          5.95808        3.10809        0.62847
H          3.75439        1.84565        2.57717
H          0.98583        1.12703        2.29848
