45
-1296.705157
C         -2.98005       -3.37091        3.95573
C         -3.08374       -2.77067        2.57208
C         -1.94730       -3.25659        1.68482
C         -1.99988       -2.52397        0.36664
C         -1.92532       -1.03204        0.61894
C         -3.06754       -0.62398        1.54091
O         -3.02100       -1.34924        2.74359
O         -4.27304       -0.83034        0.83861
C         -5.20740        0.23617        0.81246
C         -6.45026       -0.05888        1.64557
O         -7.33776        1.06686        1.54519
C         -7.78714        1.32965        0.24294
C         -6.62670        1.58324       -0.70675
C         -5.62010        0.45008       -0.62578
O         -4.46294        0.76711       -1.38693
O         -7.06164        1.77839       -2.04135
O         -8.51417        0.25602       -0.31652
C         -6.17419       -0.27465        3.12722
O         -6.08045       -1.65948        3.38719
O         -1.91099       -0.30182       -0.58835
O         -0.90380       -2.97018       -0.41776
O         -2.10213       -4.65553        1.51096
O         -4.13072       -3.10330        4.75765
H         -2.13447       -2.91451        4.46742
H         -2.80257       -4.44144        3.86471
H         -4.03775       -3.04403        2.11215
H         -0.98865       -3.03092        2.16821
H         -2.94625       -2.76135       -0.13045
H         -0.98546       -0.81455        1.12907
H         -2.97410        0.42506        1.82557
H         -4.74105        1.15297        1.19024
H         -6.93952       -0.95879        1.26716
H         -8.41373        2.21682        0.33161
H         -6.13039        2.50493       -0.40416
H         -6.07572       -0.47409       -0.99578
H         -4.77449        1.07042       -2.24834
H         -7.73059        1.10094       -2.20095
H         -9.33356        0.15931        0.17886
H         -7.01167        0.16010        3.67694
H         -5.26315        0.24656        3.42867
H         -5.28794       -1.83543        3.91405
H         -2.82872       -0.15587       -0.87368
H         -0.84202       -2.35656       -1.15959
H         -1.52258       -4.89832        0.77976
H         -4.77345       -3.79777        4.58745
