24
-686.52628509
C         -0.56219       -1.04895        3.31502
C          0.38420       -0.82737        2.15844
C          0.51746        0.64247        1.78237
C          1.53581        0.80661        0.67111
C          1.66983       -0.46658       -0.16721
C          0.36050       -1.23450       -0.22937
O         -0.19305       -1.52166        1.04146
O          0.65503       -2.45002       -0.87684
O          2.68845       -1.26757        0.40116
O          1.10384        1.90391       -0.12282
O          0.91989        1.43840        2.88335
O         -1.81125       -0.40149        3.12586
H         -0.12662       -0.63232        4.21960
H         -0.69121       -2.12393        3.45996
H          1.36178       -1.24582        2.40626
H         -0.44707        0.97584        1.39308
H          2.50859        0.99649        1.13001
H          1.92496       -0.17957       -1.19195
H         -0.37815       -0.66831       -0.80348
H         -0.09750       -3.03408       -0.73925
H          2.55979       -2.15251        0.03648
H          1.84935        2.20149       -0.65164
H          0.12662        1.64948        3.38466
H         -2.17015       -0.74431        2.30122
