45
-1296.696790
C          9.03417        7.78453        1.03797
C          8.31706        6.65612        0.33849
C          7.06071        7.05931       -0.41003
C          6.45640        5.81283       -1.02555
C          6.18124        4.76934        0.04456
C          7.43958        4.52576        0.86124
O          7.97143        5.71922        1.36968
O          8.34609        3.88332       -0.00359
C          9.42735        3.20698        0.66012
C         10.73297        3.55030       -0.05596
O         11.09937        2.57959       -1.03033
C         10.01374        2.11818       -1.79436
C          9.06506        1.28200       -0.89814
C          9.11091        1.72641        0.57160
O         10.11032        1.05635        1.31696
O          7.71897        1.34314       -1.35749
O          9.32856        3.13421       -2.48010
C         11.89891        3.67966        0.91125
O         11.66287        4.72084        1.84403
O          5.67185        3.57175       -0.51029
O          5.26285        6.19918       -1.68636
O          7.42453        8.00024       -1.40210
O         10.20904        7.30128        1.67706
H          8.36151        8.25654        1.75896
H          9.34459        8.52600        0.30800
H          9.01221        6.18926       -0.36392
H          6.34075        7.48974        0.29598
H          7.17484        5.41327       -1.75095
H          5.41404        5.16216        0.71280
H          7.23442        3.89533        1.72860
H          9.49392        3.54709        1.69328
H         10.58898        4.51985       -0.54601
H         10.45680        1.49441       -2.56540
H          9.41450        0.24603       -0.93174
H          8.11394        1.55439        0.98993
H          9.91049        0.11559        1.31110
H          7.75827        1.67704       -2.26245
H          8.82465        3.63605       -1.81939
H         12.81056        3.84249        0.33375
H         12.00682        2.76180        1.48205
H         11.60295        5.56068        1.37204
H          6.42208        3.00075       -0.74089
H          4.83858        5.38782       -1.98833
H          6.66919        8.07387       -1.99668
H          9.91810        6.61989        2.29422
