30
-819.15360105
C          6.02783       -2.04080       -0.69549
C          4.72577       -1.33211       -0.99953
C          4.12858       -1.81886       -2.32997
C          2.65749       -1.46790       -2.48691
C          1.69777       -2.11276       -1.45641
C          2.05491       -3.53591       -1.06172
O          5.02642        0.05127       -1.09322
N          0.33457       -2.15267       -1.93699
C         -0.45163       -1.06674       -2.07803
O         -0.02835        0.08512       -1.93497
C         -1.89352       -1.33427       -2.41418
O          2.59308       -0.05494       -2.40335
O          4.25680       -3.21629       -2.53051
O          6.88624       -2.06324       -1.83104
H          6.50425       -1.54333        0.15110
H          5.84464       -3.07889       -0.43030
H          4.03539       -1.51880       -0.16759
H          4.65158       -1.26962       -3.11615
H          2.33533       -1.82423       -3.47070
H          1.75222       -1.50263       -0.54794
H          2.98741       -3.66313       -0.50407
H         -0.05142       -3.08197       -2.02941
H         -2.17001       -0.72282       -3.26855
H         -2.09124       -2.38043       -2.63076
H         -2.50429       -1.02085       -1.57008
H          1.65429        0.18293       -2.23713
H          5.19492       -3.37717       -2.68961
H          7.02927       -1.14285       -2.07720
O          1.32662       -4.47634       -1.30417
H          4.23960        0.46158       -1.48356
