45
-1296.706349
C          0.26486       -1.22389       -5.91104
C          0.03630       -1.83361       -4.53817
C         -1.27682       -2.60022       -4.44763
C         -1.48911       -3.04084       -3.01869
C         -1.45463       -1.83492       -2.11285
C         -0.12834       -1.10371       -2.27073
O          0.03298       -0.71767       -3.62994
O          0.91231       -1.93390       -1.86050
C          1.91202       -1.37956       -0.99553
C          3.30458       -1.60575       -1.57992
O          4.29462       -1.26134       -0.60840
C          4.22880       -1.96751        0.59707
C          2.88961       -1.72481        1.27451
C          1.76433       -2.08910        0.33596
O          0.56026       -1.74721        0.99672
O          2.85076       -2.53098        2.44220
O          4.42358       -3.33959        0.35438
C          3.64703       -0.68956       -2.74881
O          2.87697       -0.91393       -3.91369
O         -1.61648       -2.20287       -0.75230
O         -2.75469       -3.65415       -2.82215
O         -1.26870       -3.77581       -5.23706
O          0.35467       -2.23639       -6.91440
H          1.16040       -0.60352       -5.89377
H         -0.58601       -0.59964       -6.17750
H          0.86170       -2.50761       -4.29113
H         -2.09947       -1.93587       -4.74050
H         -0.68289       -3.72620       -2.74133
H         -2.25046       -1.14677       -2.41162
H         -0.13338       -0.17185       -1.70423
H          1.73827       -0.30630       -0.85974
H          3.39980       -2.65238       -1.87743
H          5.04147       -1.56442        1.20302
H          2.81531       -0.66402        1.52988
H          1.80748       -3.16449        0.13703
H         -0.18396       -2.04032        0.44441
H          1.92999       -2.53528        2.72991
H          4.06752       -3.79343        1.12957
H          4.68593       -0.86985       -3.01404
H          3.56568        0.34669       -2.40611
H          1.97121       -0.63447       -3.72620
H         -2.31991       -2.86379       -0.73552
H         -2.80877       -4.38421       -3.44902
H         -0.90507       -3.52770       -6.09934
H          1.24148       -2.60686       -6.87365
