24
-686.52413550
C          0.80101        2.89672        1.11202
C          0.14804        3.21462       -0.22449
C         -1.37168        3.20516       -0.23178
C         -2.02074        4.12910        0.80382
C         -3.46454        4.43011        0.39798
C         -4.17490        5.12725        1.53210
O         -5.21545        4.69068        1.97902
O         -4.15831        3.24525        0.06898
O         -1.98333        3.55740        2.09505
O         -1.77718        1.85831        0.01289
O          0.62186        2.29319       -1.20493
O          2.20892        2.88457        0.95849
H          0.56352        3.65495        1.85313
H          0.43495        1.93312        1.47841
H          0.49132        4.19722       -0.55069
H         -1.69083        3.51239       -1.23190
H         -1.47382        5.07471        0.84656
H         -3.45179        5.10914       -0.46399
H         -3.70942        6.04083        1.92853
H         -4.94134        3.24622        0.64510
H         -2.05405        2.60301        1.95599
H         -2.73305        1.84246       -0.14238
H          0.08114        1.50060       -1.09435
H          2.37318        2.37859        0.15456
