24
-686.53747759
C          0.23554        2.30869       -2.87159
C          0.32422        1.38111       -1.67423
C          1.20798        1.93912       -0.57479
C          1.20850        0.97403        0.58363
C          1.72717       -0.36859        0.10254
C          0.92657       -0.84420       -1.10401
O          0.86151        0.12738       -2.11260
O         -0.34890       -1.19824       -0.60136
O          1.71977       -1.32538        1.14872
O          2.04405        1.51594        1.59554
O          0.70773        3.21682       -0.21227
O          1.48377        2.84535       -3.27291
H         -0.47486        3.10200       -2.63591
H         -0.14691        1.73820       -3.71531
H         -0.68572        1.22986       -1.28165
H          2.22932        2.01830       -0.95969
H          0.18422        0.86135        0.95499
H          2.76621       -0.24684       -0.20122
H          1.40779       -1.70476       -1.56762
H         -0.82256       -1.66266       -1.29811
H          0.80865       -1.63808        1.20838
H          2.15427        0.82708        2.26061
H          1.13697        3.44604        0.62023
H          1.68971        3.55539       -2.65827
