24
-686.52653536
C          3.88668       -1.80739        2.18818
C          3.00765       -1.05691        1.20059
C          2.58127        0.30552        1.71503
C          1.70376        1.02758        0.69722
C          0.91700        0.04034       -0.17019
C          0.66727       -1.23736        0.61170
O          1.84679       -1.88287        1.00026
O         -0.11701       -0.83375        1.72337
O          1.69657       -0.21397       -1.32667
O          0.87079        1.98122        1.33947
O          3.75644        1.05290        2.01771
O          5.21044       -1.31690        2.21158
H          3.93556       -2.84876        1.87705
H          3.41892       -1.77198        3.17857
H          3.54408       -0.94495        0.25669
H          1.99660        0.14842        2.62554
H          2.35280        1.58746        0.02535
H         -0.04261        0.49655       -0.42187
H          0.11925       -1.97528        0.02024
H         -0.23254       -1.60802        2.28409
H          1.26697       -0.90621       -1.83837
H          0.25018        1.47410        1.87601
H          3.46894        1.91197        2.34438
H          5.14131       -0.36560        2.35317
