45
-1296.689267
C         -4.29004       -2.82625        1.93470
C         -3.78685       -1.39697        1.88376
C         -2.44629       -1.21964        1.16731
C         -1.22038       -1.57996        2.02962
C         -1.41420       -1.24508        3.52025
C         -2.61876       -0.35036        3.75787
O         -3.80365       -0.91876        3.25904
O         -2.38064        0.91842        3.16627
C         -2.39158        2.07194        4.00296
C         -3.67076        2.88538        3.82683
O         -3.56887        4.07777        4.61694
C         -2.50463        4.92380        4.23277
C         -1.18343        4.18794        4.42424
C         -1.18946        2.90606        3.61864
O         -0.02091        2.14562        3.88506
O         -0.04598        4.91610        3.99729
O         -2.58831        5.32970        2.89811
C         -4.94037        2.18889        4.30633
O         -5.49544        1.31428        3.35058
O         -0.27906       -0.70364        4.14977
O         -0.83278       -2.93053        1.85582
O         -2.34104        0.07227        0.59146
O         -3.44856       -3.67910        2.70659
H         -4.31534       -3.23969        0.92861
H         -5.30399       -2.83335        2.33753
H         -4.51636       -0.79811        1.33301
H         -2.43998       -1.90947        0.32364
H         -0.39581       -0.97907        1.65036
H         -1.61661       -2.18500        4.03492
H         -2.78203       -0.22003        4.82825
H         -2.29125        1.76675        5.04963
H         -3.79466        3.13387        2.77024
H         -2.57785        5.77482        4.91354
H         -1.10655        3.92555        5.48334
H         -1.25106        3.15490        2.55545
H          0.72932        2.73370        3.73795
H          0.11133        5.63803        4.61199
H         -3.38157        5.86709        2.80449
H         -5.67476        2.97086        4.48920
H         -4.75015        1.68723        5.26153
H         -4.96504        0.50364        3.33629
H         -0.16030        0.20937        3.84349
H         -1.58316       -3.46526        2.15381
H         -2.32793        0.69881        1.32779
H         -3.56755       -3.42030        3.62591
