30
-819.15314449
C         -1.53953       -1.45118        2.02228
C         -0.30984       -1.17886        1.17541
C         -0.67407       -1.20297       -0.31953
C          0.39386       -1.74982       -1.29014
C          1.60607       -2.38915       -0.61635
C          1.15614       -3.05235        0.68527
O          0.71594       -2.09739        1.60385
N          2.71595       -1.48424       -0.38276
C          2.66381       -0.14780       -0.14811
O          1.64225        0.52669       -0.24654
C          3.97763        0.47751        0.25020
O         -0.15484       -2.83401       -2.06638
O         -1.11344        0.08409       -0.71314
O         -2.11565       -2.71354        1.74591
H         -1.25571       -1.36717        3.07458
H         -2.29605       -0.69902        1.80226
H          0.06724       -0.18258        1.40099
H         -1.54498       -1.85065       -0.42343
H          0.70694       -0.94571       -1.95197
H          1.96294       -3.16315       -1.29623
H          1.99541       -3.53403        1.18622
H          3.60623       -1.92344       -0.22039
H          4.08095        1.42586       -0.26825
H          3.94502        0.68030        1.31937
H          4.83697       -0.15320        0.03682
H         -0.97716       -2.51632       -2.45608
H         -0.32696        0.64280       -0.63753
H         -1.39093       -3.35206        1.70235
O          0.18719       -4.04245        0.43365
H         -0.17742       -3.90498       -0.45526
