24
-686.52247080
C         -1.43265       -1.14548        2.64477
C         -0.10149       -0.73993        2.02707
C         -0.19567        0.55616        1.22872
C          1.11048        0.85214        0.51559
C          1.73501       -0.41215       -0.09436
C          0.74701       -1.56428       -0.09875
O          0.33386       -1.85337        1.22535
O         -0.32054       -1.23835       -0.94490
O          2.89105       -0.82297        0.61931
O          0.93733        1.81390       -0.50753
O         -0.57364        1.65461        2.06681
O         -1.82706       -0.29738        3.70388
H         -1.32652       -2.14573        3.05857
H         -2.18419       -1.18606        1.84901
H          0.62452       -0.59817        2.83796
H         -0.98917        0.47687        0.49075
H          1.83163        1.20808        1.26327
H          2.04337       -0.18031       -1.11063
H          1.24572       -2.47853       -0.42036
H         -0.87990       -2.01835       -1.01707
H          2.58699       -1.35845        1.36082
H          0.42837        2.53939       -0.12986
H          0.14081        1.79299        2.70015
H         -1.83138        0.59788        3.34652
