24
-686.52424431
C         -0.38718       -0.01873       -1.81118
C          0.22808       -1.26534       -1.21415
C         -0.81442       -2.38838       -1.09201
C         -0.18202       -3.76751       -0.97898
C          0.44419       -4.28898       -2.28987
C         -0.59667       -4.90609       -3.19909
O         -0.57374       -6.10321       -3.42035
O          1.40072       -5.27197       -1.95347
O          0.83568       -3.67473        0.00573
O         -1.71431       -2.43537       -2.18922
O          0.69480       -0.90698        0.07883
O         -1.63698        0.29485       -1.20058
H          0.32130        0.80399       -1.70440
H         -0.59358       -0.16652       -2.86750
H          1.06395       -1.57352       -1.85054
H         -1.35546       -2.19793       -0.16241
H         -0.94558       -4.48422       -0.65788
H          0.93606       -3.46939       -2.81935
H         -1.35465       -4.24454       -3.62607
H          1.04598       -6.09742       -2.32541
H          1.41516       -4.43282       -0.15843
H         -2.25966       -1.64259       -2.10798
H          1.01658       -1.72788        0.47479
H         -1.45624        0.42287       -0.26327
