24
-686.53161671
C         -1.66003        0.41520        1.76152
C         -0.29248       -0.23159        1.89178
C          0.88948        0.74766        1.94000
C          1.48902        1.04730        0.56450
C          1.74002       -0.25355       -0.19355
C          0.44449       -1.05290       -0.29968
O         -0.12955       -1.31011        0.95455
O         -0.43940       -0.42221       -1.20762
O          2.73401       -0.97464        0.52492
O          0.66741        1.89200       -0.23487
O          1.89674        0.28254        2.82131
O         -1.83801        1.18760        0.57813
H         -1.80345        1.09549        2.59974
H         -2.41782       -0.36766        1.81788
H         -0.28786       -0.72688        2.86387
H          0.53133        1.68763        2.36402
H          2.44271        1.54857        0.72668
H          2.08627       -0.01578       -1.20258
H          0.64133       -2.05124       -0.69300
H         -0.10768        0.48312       -1.32320
H          2.78598       -1.86590        0.16593
H         -0.23120        1.89789        0.15031
H          2.37484       -0.40802        2.34248
H         -1.79373        0.55148       -0.15323
