40
-1161.25715904
O          9.65955        3.04809       -5.49609
C          9.71911        4.10164       -4.67334
O         10.64746        4.87859       -4.64415
C          8.48828        4.16579       -3.75917
O          7.37359        4.24073       -4.58593
C          8.42991        2.97204       -2.82029
C          7.24862        3.14300       -1.87235
H          7.36467        2.46090       -1.02635
O          6.07808        2.81722       -2.61221
C          7.17326        4.58936       -1.32213
H          6.39882        5.12051       -1.87968
N          6.84165        4.60768        0.08879
C          5.63701        4.14504        0.50477
C          5.28793        4.39158        1.94781
O          4.86996        3.55639       -0.25860
C          8.49016        5.29549       -1.59912
H          9.32772        4.74872       -1.15805
O          8.64135        5.36600       -3.01635
C          8.55818        6.73334       -1.09292
H          8.62755        6.70304       -0.00163
O          7.38347        7.45217       -1.41022
C          9.78636        7.50651       -1.59854
H          9.78018        8.46035       -1.06629
O          9.62866        7.84878       -2.96887
C         11.13750        6.86466       -1.31232
O         11.35345        5.59654       -1.90270
H         10.47139        3.06978       -6.02430
H          6.63481        3.82059       -4.11100
H          9.36170        2.89830       -2.26023
H          8.30030        2.06189       -3.40108
H          5.34837        2.99978       -1.99139
H          7.35572        5.20800        0.71002
H          6.13194        4.74873        2.53229
H          4.90927        3.46885        2.37795
H          4.48967        5.13028        1.98504
H          7.54399        7.82541       -2.28787
H          9.48094        7.01512       -3.44005
H         11.24175        6.72044       -0.23559
H         11.90247        7.57761       -1.63010
H         11.21608        5.66127       -2.85798
