24
-686.52406839
C          0.40941        2.11067        3.33693
C          0.49176        1.33716        2.02318
C          1.01729        2.15792        0.84590
C          2.54143        2.32742        0.82285
C          3.00943        2.71670       -0.58107
C          4.47360        3.07927       -0.54290
O          4.86302        4.14996       -0.96157
O          2.27191        3.81086       -1.08453
O          2.97897        3.28361        1.76951
O          0.40826        3.45202        0.87924
O         -0.78551        0.81051        1.71405
O         -0.71567        2.98253        3.33237
H          0.23570        1.40551        4.14633
H          1.33949        2.64489        3.52908
H          1.16645        0.48778        2.15185
H          0.71084        1.62287       -0.05721
H          3.01683        1.37887        1.08225
H          2.89037        1.84857       -1.24129
H          5.16327        2.33364       -0.12226
H          2.93981        4.47801       -1.31685
H          2.31630        3.98663        1.74942
H          0.68320        3.89764        0.06392
H         -1.41179        1.45275        2.07507
H         -0.56808        3.59702        2.60254
