30
-819.15340505
C          2.75810       -2.26868       -5.70564
C          1.84226       -1.13834       -5.26294
C          1.80874       -0.84915       -3.75474
C          1.81714       -2.08670       -2.85336
C          1.77903       -1.76425       -1.34951
C          2.30337       -2.99034       -0.62752
O          0.55354       -1.46978       -5.75317
N          0.47704       -1.46624       -0.82199
C          0.02690       -0.21540       -0.61597
O          0.64006        0.77918       -1.02337
C         -1.28241       -0.09172        0.11276
O          0.77156       -3.00386       -3.07266
O          0.68425       -0.01261       -3.59683
O          2.17064       -3.54603       -5.46760
H          2.97158       -2.15407       -6.76941
H          3.70289       -2.24291       -5.16613
H          2.18921       -0.21310       -5.73519
H          2.73440       -0.30496       -3.52048
H          2.79109       -2.56613       -3.03099
H          2.44986       -0.92459       -1.14537
H          3.31579       -3.30587       -0.93106
H         -0.02422       -2.24824       -0.43088
H         -2.01610        0.33014       -0.57068
H         -1.64826       -1.04138        0.49337
H         -1.15338        0.60789        0.93445
H          0.99558       -3.43142       -3.91224
H          0.72286        0.40624       -2.71462
H          1.34573       -3.52423       -5.96910
O          1.67091       -3.60787        0.19905
H         -0.06448       -0.96020       -5.21149
