24
-686.52691223
C          1.16575        1.96695       -2.37089
C          0.12461        1.41225       -1.41318
C          0.37661        1.78277        0.03830
C          1.58251        1.03902        0.63067
C          1.87907       -0.27630       -0.08987
C          0.61829       -0.86499       -0.68924
O          0.01985       -0.02089       -1.62820
O         -0.24740       -1.14554        0.41086
O          2.54421       -1.20521        0.74698
O          2.70691        1.90676        0.57552
O         -0.78717        1.60262        0.82651
O          0.89098        1.56368       -3.70006
H          2.17325        1.67525       -2.06702
H          1.11786        3.05450       -2.35157
H         -0.85089        1.80145       -1.70062
H          0.60774        2.84672        0.08039
H          1.32460        0.81297        1.66859
H          2.56515       -0.07314       -0.90968
H          0.84020       -1.79257       -1.21568
H         -0.96611       -1.69628        0.08297
H          1.89642       -1.49559        1.39924
H          3.45339        1.42899        0.95294
H         -0.93998        0.64921        0.86194
H          0.69953        0.62096       -3.65371
