24
-686.52268905
C          2.27635       -1.51037       -5.05058
C          1.70911       -2.03898       -6.35155
C          2.48407       -3.24764       -6.86098
C          1.81904       -3.99590       -8.02022
C          1.60233       -3.24228       -9.34020
C          2.89443       -2.64378       -9.85940
O          3.97387       -3.20185       -9.78049
O          0.55748       -2.30424       -9.32147
O          2.59038       -5.17203       -8.26813
O          2.58411       -4.15577       -5.77445
O          1.74341       -0.98653       -7.31980
O          3.55138       -0.96081       -5.39181
H          1.61433       -0.73207       -4.66670
H          2.36676       -2.31824       -4.32825
H          0.66344       -2.30979       -6.20454
H          3.48010       -2.91152       -7.16843
H          0.84142       -4.33820       -7.67830
H          1.31636       -4.01041      -10.06414
H          2.79329       -1.65523      -10.33912
H          0.83934       -1.59674       -8.71913
H          3.37902       -4.86740       -8.74198
H          2.83540       -4.99746       -6.17761
H          2.57377       -0.51727       -7.15823
H          3.93152       -0.55657       -4.60890
