30
-819.15558623
C          1.55386       -4.68988       -3.36103
C          0.50450       -4.28551       -2.34406
C         -0.18852       -2.96653       -2.69013
C          0.07191       -1.92440       -1.61588
C          1.57738       -1.91575       -1.40255
C          1.99498       -3.24041       -0.73247
O          1.08770       -4.28089       -1.02677
N          2.07653       -0.81896       -0.61100
C          2.26705        0.40628       -1.15216
O          1.95817        0.65632       -2.31943
C          2.88303        1.44141       -0.25060
O         -0.47243       -0.67890       -1.99800
O         -1.57215       -3.21410       -2.84780
O          2.16143       -5.91798       -3.01825
H          1.07514       -4.81613       -4.33104
H          2.30288       -3.89521       -3.46236
H         -0.25442       -5.06244       -2.28481
H          0.23028       -2.56801       -3.62404
H         -0.44225       -2.23017       -0.70144
H          2.05203       -1.84275       -2.38466
H          3.01513       -3.50098       -1.02454
H          2.28036       -1.00135        0.35792
H          2.21816        2.30011       -0.20586
H          3.07105        1.07222        0.75401
H          3.81933        1.76995       -0.69569
H          0.24608       -0.15334       -2.39038
H         -1.98187       -2.34837       -2.96653
H          2.26633       -5.90894       -2.06055
O          2.01019       -3.13248        0.66745
H          1.12926       -3.39672        0.95956
