45
-1296.690130
C         -6.72833        8.48305       -2.07667
C         -5.71823        7.40605       -2.40568
C         -4.26544        7.88284       -2.37916
C         -3.83179        8.62348       -3.66205
C         -4.65739        8.21085       -4.87980
C         -5.22889        6.82061       -4.71393
O         -6.10428        6.74868       -3.62857
O         -4.12458        5.94279       -4.58548
C         -4.24113        4.69667       -5.27757
C         -3.12282        3.81291       -4.72479
O         -2.65072        2.95206       -5.75789
C         -1.87505        3.66181       -6.73249
C         -2.59647        4.96345       -7.16143
C         -4.07237        4.86767       -6.79214
O         -4.69421        3.80459       -7.49297
O         -1.95418        6.05103       -6.51204
O         -0.59552        3.92518       -6.27606
C         -3.57908        2.93022       -3.58492
O         -4.56277        2.00112       -4.00674
O         -3.88184        8.20301       -6.07893
O         -3.82334       10.03521       -3.53087
O         -3.39641        6.80038       -2.08728
O         -6.54621        9.61443       -2.93357
H         -6.59395        8.77203       -1.03140
H         -7.72713        8.06599       -2.20815
H         -5.80618        6.65453       -1.61869
H         -4.15475        8.58384       -1.55166
H         -2.79720        8.33242       -3.83611
H         -5.49926        8.89619       -4.97928
H         -5.82465        6.53732       -5.58114
H         -5.21898        4.24721       -5.08691
H         -2.31095        4.46072       -4.38171
H         -1.81151        2.96067       -7.56003
H         -2.50732        5.06715       -8.24441
H         -4.57524        5.77883       -7.11527
H         -4.34425        2.99386       -7.10324
H         -2.60311        6.74744       -6.31651
H         -0.58834        4.86303       -6.03191
H         -4.03801        3.54675       -2.81289
H         -2.71252        2.42266       -3.15650
H         -4.13802        1.44128       -4.66417
H         -3.53040        9.09332       -6.19347
H         -4.73332       10.27425       -3.30437
H         -3.42985        6.22536       -2.86632
H         -7.29273       10.20688       -2.81033
