30
-819.15683663
C          1.52838        1.58212       -4.49176
C          2.17313        0.37483       -3.82326
C          1.18087       -0.78414       -3.73574
C          1.70270       -1.99259       -2.96241
C          1.63553       -1.83075       -1.43935
C          2.07237       -3.14670       -0.83104
O          2.71952        0.72565       -2.56379
N          0.31875       -1.52205       -0.94695
C         -0.13195       -0.27629       -0.71138
O          0.51391        0.74137       -0.99479
C         -1.50218       -0.17523       -0.09926
O          0.91510       -3.13254       -3.25187
O          0.91188       -1.26143       -5.06186
O          0.27861        1.93178       -3.91117
H          2.23725        2.41098       -4.44061
H          1.32443        1.37170       -5.54026
H          3.00919        0.04620       -4.44417
H          0.24934       -0.45287       -3.27893
H          2.75122       -2.16564       -3.23715
H          2.34444       -1.05927       -1.13822
H          3.06618       -3.49658       -1.15209
H         -0.21307       -2.30998       -0.60931
H         -1.44199        0.46804        0.77466
H         -2.16488        0.30290       -0.81762
H         -1.91370       -1.14028        0.18312
H          0.68100       -3.04629       -4.18608
H          0.18566       -0.73947       -5.41427
H          0.41097        2.05918       -2.96446
O          1.39134       -3.78540       -0.05972
H          1.97531        0.82493       -1.93973
