30
-819.15320366
C          0.13503       -5.25046       -2.52915
C          0.60660       -3.91210       -2.01478
C         -0.42339       -2.80398       -2.25492
C          0.23083       -1.47656       -2.68932
C          1.70510       -1.26353       -2.29775
C          2.49541       -2.56503       -2.05799
O          1.84115       -3.64369       -2.68093
N          1.90173       -0.32942       -1.20333
C          1.42778       -0.54931        0.04209
O          0.74635       -1.54004        0.31236
C          1.77676        0.47898        1.08434
O          0.25121       -1.36735       -4.11515
O         -1.28677       -2.66357       -1.14928
O          1.05143       -6.28470       -2.23143
H         -0.80861       -5.50294       -2.04969
H         -0.03206       -5.16554       -3.60851
H          0.79300       -3.98027       -0.93808
H         -1.06997       -3.10464       -3.08374
H         -0.36520       -0.67071       -2.25260
H          2.14703       -0.78889       -3.17226
H          2.59133       -2.75527       -0.98718
H          2.49264        0.46852       -1.35498
H          0.85343        0.87151        1.50323
H          2.31955       -0.01618        1.88595
H          2.37510        1.29832        0.69480
H         -0.63928       -1.54457       -4.43363
H         -0.73058       -2.33158       -0.42638
H          1.91063       -5.96790       -2.52916
O          3.79458       -2.47841       -2.55236
H          3.72623       -2.42417       -3.51248
