40
-1161.24952086
O          8.33743        6.69213        8.34365
C          8.44833        5.44347        8.84213
O          9.15879        4.58971        8.37794
C          7.52396        5.22372       10.04815
O          8.02600        4.18018       10.82342
C          7.36467        6.44168       10.95144
C          6.12095        7.21662       10.57968
H          6.17139        7.50659        9.52388
O          6.07251        8.36531       11.40715
C          4.90839        6.32694       10.80253
H          4.79748        6.17511       11.87637
N          3.72451        7.03402       10.35049
C          2.48148        6.74473       10.85171
C          1.33484        7.48173       10.20413
O          2.31965        5.96065       11.77488
C          5.08321        4.95321       10.11241
H          4.32975        4.87689        9.32540
O          6.31813        4.87020        9.38465
C          4.83291        3.79991       11.07944
H          3.85912        4.01745       11.52395
O          5.73143        3.76761       12.17669
C          4.69695        2.41656       10.41429
H          3.72452        2.40352        9.91154
O          4.67903        1.43338       11.44334
C          5.72826        1.98694        9.38163
O          7.02560        1.80638        9.94730
H          8.91738        6.72237        7.56822
H          7.99897        3.36180       10.28520
H          8.23825        7.08540       10.88737
H          7.26639        6.10027       11.98116
H          5.17216        8.70624       11.36776
H          3.77242        7.50830        9.46218
H          1.64849        8.15441        9.40969
H          0.81640        8.05057       10.97208
H          0.63455        6.75117        9.80631
H          6.64085        3.79119       11.81961
H          5.04981        1.88170       12.21766
H          5.83062        2.71888        8.58689
H          5.38665        1.04285        8.95176
H          6.89704        1.20234       10.68863
