45
-1296.690100
C          6.10444        3.57389        5.04624
C          5.84177        4.26124        3.71708
C          4.40184        4.10958        3.25123
C          4.24160        4.74615        1.89215
C          5.21615        4.11048        0.92131
C          6.63226        4.19088        1.48351
O          6.70578        3.63369        2.76174
O          7.04027        5.55471        1.52520
C          7.95615        5.93378        0.51099
C          9.37209        6.02337        1.07932
O         10.21952        6.81901        0.24132
C          9.78351        6.89506       -1.11750
C          8.43624        7.63195       -1.20895
C          7.58991        7.31576        0.00979
O          6.21030        7.41920       -0.35247
O          8.70851        9.02173       -1.31555
O         10.75917        7.52011       -1.85837
C          9.99307        4.66563        1.33496
O         10.10052        3.89521        0.14405
O          5.11044        4.67797       -0.37105
O          2.89653        4.55777        1.48216
O          3.54871        4.72149        4.21086
O          5.53597        4.27918        6.13057
H          7.17927        3.54391        5.21058
H          5.74121        2.54226        4.99283
H          6.08872        5.32149        3.81258
H          4.17530        3.04071        3.16536
H          4.46421        5.81575        1.98581
H          4.95696        3.05685        0.81056
H          7.32232        3.61887        0.86245
H          7.90582        5.21701       -0.31249
H          9.29072        6.55061        2.03392
H          9.66996        5.88518       -1.51378
H          7.91270        7.27047       -2.09836
H          7.82708        8.04742        0.78535
H          5.72550        7.64001        0.44928
H          7.92349        9.45386       -1.66225
H         10.58429        8.46830       -1.79047
H          9.36393        4.10409        2.02558
H         10.96948        4.80642        1.80113
H         10.86789        4.22171       -0.33430
H          5.45059        5.58757       -0.33738
H          2.86694        4.75189        0.53798
H          2.66308        4.72290        3.82963
H          4.61477        4.44528        5.89838
