45
-1296.691062
C          0.58233        6.35104       -9.64187
C          1.71682        7.30161       -9.24434
C          1.88366        8.46927      -10.21210
C          2.64533        8.08021      -11.48601
C          3.87923        7.21632      -11.17948
C          3.41796        6.06869      -10.30346
O          2.95810        6.62777       -9.07002
O          4.46842        5.21451      -10.01785
C          4.09282        4.11842       -9.17563
C          5.35884        3.71658       -8.43600
O          5.08400        2.62496       -7.55977
C          4.61950        1.48243       -8.21409
C          3.33258        1.78584       -8.96914
C          3.51573        2.94578       -9.93500
O          2.27246        3.22046      -10.58082
O          2.95780        0.60887       -9.66740
O          5.60565        1.00414       -9.10053
C          5.88408        4.87553       -7.60182
O          4.87545        5.55926       -6.87648
O          4.90392        7.97624      -10.58596
O          1.71494        7.39914      -12.31737
O          2.60695        9.45361       -9.48031
O          0.66846        5.10006       -8.96613
H          0.59840        6.12010      -10.70146
H         -0.36522        6.84950       -9.42445
H          1.49882        7.72677       -8.26359
H          0.89796        8.84136      -10.50855
H          2.99342        9.00204      -11.96425
H          4.28184        6.81843      -12.11245
H          2.60209        5.53398      -10.78874
H          3.36661        4.45702       -8.43515
H          6.12604        3.42580       -9.15838
H          4.43037        0.75568       -7.42255
H          2.56891        2.05893       -8.23245
H          4.20311        2.65157      -10.72797
H          1.69667        3.66776       -9.93896
H          2.29714        0.88438      -10.31462
H          5.14176        0.42062       -9.71478
H          6.42168        5.55759       -8.26108
H          6.57975        4.47152       -6.86975
H          4.39052        6.10634       -7.50579
H          4.55488        8.29240       -9.74254
H          2.16194        7.15671      -13.13440
H          2.79590       10.19096      -10.06958
H          0.78949        5.26638       -8.02565
