30
-819.16024581
C          0.05141       -3.05876       -4.69818
C         -0.34239       -3.13509       -3.23430
C         -0.63098       -1.76556       -2.60937
C          0.20048       -1.53735       -1.36246
C          1.64007       -1.79407       -1.78585
C          1.77525       -3.29522       -2.03785
O          0.59770       -3.90957       -2.46373
N          2.68399       -1.35315       -0.87850
C          2.58553       -1.09448        0.44892
O          1.52988       -1.12067        1.08033
C          3.88785       -0.74566        1.12843
O         -0.04642       -0.21190       -0.94851
O         -2.01601       -1.70889       -2.31373
O          1.19881       -2.26608       -4.94410
H          0.18312       -4.07520       -5.07844
H         -0.77137       -2.59548       -5.24211
H         -1.26503       -3.70999       -3.16323
H         -0.36224       -0.97563       -3.31848
H         -0.10345       -2.24698       -0.59156
H          1.79982       -1.27088       -2.73069
H          2.03640       -3.79788       -1.10512
H          3.60451       -1.29755       -1.28037
H          3.78295        0.23524        1.58522
H          4.05757       -1.46440        1.92656
H          4.74319       -0.74264        0.45786
H          0.28754       -0.18282       -0.03831
H         -2.14434       -0.87793       -1.84054
H          1.94617       -2.71798       -4.52826
O          2.84202       -3.45175       -2.96995
H          3.04045       -4.39335       -3.02357
