45
-1296.68586096
C          0.72336        0.06342       11.21739
C         -0.30617        1.17410       11.25177
C         -1.13238        1.34621       12.53283
C         -2.36723        0.44323       12.59705
C         -3.14598        0.52766       11.28792
C         -2.24423        0.27736       10.08833
O         -1.13700        1.18025       10.08052
O         -2.46632        3.92679        5.54061
C         -1.86790        3.04398        6.46848
C         -2.90697        2.35529        7.35250
O         -3.36370        3.17121        8.43916
C         -2.41009        3.91636        9.18382
C         -1.47007        4.71126        8.30137
C         -0.80462        3.77457        7.30069
O          0.09210        2.89846        7.97013
O         -2.18544        5.71322        7.59114
O         -3.13008        4.84929        9.93572
C         -2.41503        0.95446        7.77855
O         -3.05502        0.56298        8.98474
O         -3.70605        1.83409       11.16539
O         -2.07663       -0.89734       12.92366
O         -1.51908        2.70707       12.64533
O          0.09989       -1.21993       11.30494
H          1.41286        0.21721       12.05104
H          1.27611        0.14450       10.28020
H          0.27230        2.09693       11.16856
H         -0.49434        1.12183       13.38907
H         -3.00248        0.83112       13.39256
H         -3.92932       -0.23291       11.29334
H         -1.87137       -0.74862       10.05551
H         -1.36234        2.27275        5.88331
H         -3.80595        2.22992        6.75280
H         -1.84943        3.24682        9.83579
H         -0.70269        5.15842        8.93797
H         -0.20015        4.36170        6.61190
H         -0.38253        2.41652        8.66072
H         -2.85504        6.04380        8.20491
H         -3.74140        4.36685       10.50305
H         -1.33644        0.91226        7.88410
H         -2.69829        0.25168        6.99373
H         -2.66804        4.73448        6.03596
H         -3.89316        1.93765       10.21434
H         -1.31474       -1.18177       12.39524
H         -2.33514        2.79098       12.13053
H          0.78356       -1.89571       11.32019
