24
-686.52564235
C          2.25071       -1.63998        3.50711
C          2.10898       -1.06840        2.11376
C          1.50679        0.32736        2.11912
C          1.41461        0.85547        0.69792
C          1.23064       -0.27857       -0.31870
C          0.49067       -1.43250        0.33575
O          1.22287       -1.95971        1.42693
O         -0.80216       -1.02965        0.71422
O          2.46958       -0.79232       -0.77580
O          0.29778        1.73255        0.54292
O          2.26524        1.26620        2.87082
O          1.03320       -1.56487        4.22983
H          2.99068       -1.07365        4.06902
H          2.60154       -2.67072        3.42277
H          3.08490       -1.05390        1.62136
H          0.49792        0.24656        2.52585
H          2.35055        1.37446        0.47122
H          0.62271        0.10015       -1.14278
H          0.37987       -2.26686       -0.35152
H         -0.82442       -0.06668        0.78694
H          2.88874       -0.11493       -1.31432
H          0.37630        2.41189        1.22204
H          2.08225        1.09915        3.80096
H          0.37354       -2.00405        3.67996
