30
-819.15123089
C          0.63413       -5.80757       -2.15515
C          0.28528       -4.60617       -1.29838
C         -0.07635       -3.36925       -2.11816
C          0.36616       -2.13122       -1.36459
C          1.88376       -2.13579       -1.27967
C          2.40369       -3.55435       -0.88555
O          1.33417       -4.34302       -0.36680
N          2.36898       -1.02600       -0.47672
C          2.21914       -0.92633        0.86629
O          1.91010       -1.88801        1.57067
C          2.46204        0.44147        1.44984
O         -0.02177       -0.95072       -2.04477
O         -1.46261       -3.31577       -2.43828
O          0.91936       -6.93499       -1.35505
H         -0.21417       -6.05877       -2.79022
H          1.47970       -5.55962       -2.80686
H         -0.56971       -4.86611       -0.66917
H          0.42617       -3.37891       -3.08927
H         -0.04907       -2.15505       -0.35077
H          2.24707       -1.93337       -2.28811
H          2.79836       -4.03146       -1.78633
H          2.52720       -0.16797       -0.97671
H          3.03085        0.33236        2.36817
H          2.98589        1.10694        0.76855
H          1.49795        0.88086        1.70064
H         -0.91420       -1.11542       -2.37336
H         -1.95402       -3.49055       -1.62798
H          1.50762       -6.62007       -0.65860
O          3.41795       -3.55978        0.03833
H          3.02931       -3.15228        0.83423
