45
-1296.693209
C          0.05545       -3.25941       -2.50343
C          0.54138       -2.05427       -1.74473
C          1.57258       -2.42370       -0.68787
C          1.96332       -1.17221        0.06633
C          0.73580       -0.51951        0.67353
C         -0.28923       -0.27188       -0.42305
O         -0.59705       -1.45839       -1.11540
O          0.27951        0.70541       -1.25399
C         -0.59275        1.62554       -1.89206
C         -0.69532        1.28220       -3.38617
O         -0.78711        2.46776       -4.19116
C         -1.60470        3.43174       -3.57113
C         -0.91642        4.04799       -2.34576
C          0.00606        3.00436       -1.73217
O          0.23488        3.22195       -0.34625
O         -0.13427        5.17953       -2.66133
O         -1.85102        4.45414       -4.48595
C         -1.82029        0.30008       -3.67416
O         -1.64457       -0.37108       -4.90528
O          1.06741        0.67389        1.35495
O          2.89538       -1.55668        1.06613
O          2.69056       -3.00208       -1.33724
O         -0.69823       -2.80754       -3.63131
H         -0.56841       -3.86335       -1.84117
H          0.92196       -3.83936       -2.82009
H          0.99426       -1.35046       -2.44884
H          1.12269       -3.13243        0.01815
H          2.42776       -0.47519       -0.63876
H          0.30441       -1.20142        1.40723
H         -1.23453        0.08132       -0.00751
H         -1.57246        1.59138       -1.39994
H          0.25257        0.82584       -3.66938
H         -2.54384        2.95939       -3.25593
H         -1.68621        4.30815       -1.61092
H          0.94690        3.03646       -2.28754
H          0.61725        4.10171       -0.25746
H         -0.52361        5.56418       -3.45675
H         -2.03496        4.03438       -5.33346
H         -2.76640        0.84310       -3.72130
H         -1.87969       -0.41407       -2.85017
H         -1.17914       -1.18817       -4.68542
H          1.03112        1.39270        0.70386
H          3.05077       -0.77382        1.60710
H          3.40755       -2.99129       -0.69243
H         -1.07629       -3.57851       -4.06226
