30
-819.15139591
C         -0.61420       -5.30144       -0.23667
C         -0.11090       -3.98737        0.33227
C         -0.79626       -2.74297       -0.25791
C         -0.02175       -2.11808       -1.41877
C          1.49024       -2.01109       -1.17088
C          2.03451       -3.37304       -0.71454
O          1.32445       -3.95912        0.33564
N          1.95960       -0.87554       -0.38691
C          1.91978       -0.66128        0.95329
O          1.34561       -1.39579        1.75261
C          2.64536        0.57652        1.42206
O         -0.17615       -2.88038       -2.61893
O         -1.09178       -1.78442        0.73217
O         -0.39630       -5.43631       -1.63832
H         -0.13324       -6.12036        0.30016
H         -1.68981       -5.36614       -0.07982
H         -0.37483       -3.98841        1.39120
H         -1.76103       -3.05266       -0.66586
H         -0.43217       -1.12251       -1.58604
H          1.92218       -1.83570       -2.15580
H          3.04224       -3.26675       -0.31883
H          2.45757       -0.17970       -0.91328
H          3.41268        0.27080        2.12935
H          3.10378        1.14789        0.61916
H          1.93670        1.20541        1.95512
H         -0.52307       -3.76131       -2.37719
H         -0.27234       -1.65345        1.24473
H          0.56803       -5.46154       -1.74521
O          2.12458       -4.23042       -1.84868
H          1.54231       -3.85047       -2.52414
