45
-1296.699913
C          2.28629        4.22498        1.86665
C          1.92471        4.14458        3.33066
C          2.14320        5.44809        4.07794
C          1.85057        5.23133        5.54694
C          2.72058        4.10933        6.08449
C          2.51700        2.86426        5.23794
O          2.76821        3.11818        3.88131
O          1.18411        2.44340        5.44263
C          0.96125        1.04677        5.18823
C         -0.45200        0.90456        4.60398
O         -1.41639        0.56443        5.59713
C         -1.25887        1.29036        6.80561
C          0.03547        0.81226        7.50512
C          1.11065        0.32319        6.51867
O          1.11259       -1.07574        6.37520
O          0.61637        1.84554        8.30123
O         -1.31427        2.67153        6.62698
C         -0.58593       -0.17180        3.54473
O         -0.42605       -1.47875        4.09110
O          2.49467        3.88004        7.45857
O          2.11375        6.45102        6.21995
O          1.28071        6.41807        3.51316
O          2.05723        2.98608        1.21577
H          3.33116        4.53529        1.77270
H          1.65698        4.96552        1.38205
H          0.87753        3.84665        3.42457
H          3.19243        5.75008        3.97495
H          0.79285        4.96354        5.65108
H          3.76386        4.41179        5.98085
H          3.21098        2.07349        5.52854
H          1.69721        0.69098        4.46380
H         -0.70657        1.86477        4.14524
H         -2.13481        1.02626        7.39238
H         -0.21323       -0.04821        8.12793
H          2.06976        0.60639        6.95802
H          0.61314       -1.31247        5.57495
H         -0.09995        2.31893        8.73894
H         -0.44504        2.95593        6.30488
H          0.18144       -0.04518        2.78454
H         -1.56331       -0.07859        3.07114
H         -1.20869       -1.63559        4.63157
H          1.79026        3.21768        7.56610
H          2.06980        6.25676        7.16357
H          1.28743        7.17020        4.11615
H          2.59515        2.33957        1.68295
