45
-1296.690919
C         -5.18757        1.38946       -6.16810
C         -3.68724        1.58103       -6.21529
C         -2.91119        0.30197       -5.86810
C         -2.21139        0.42750       -4.52108
C         -1.32383        1.67601       -4.49577
C         -2.02671        2.89206       -5.17079
O         -3.39830        2.65019       -5.30838
O         -1.44464        3.14698       -6.42333
C         -0.86146        4.43591       -6.60003
C         -1.22523        4.93163       -7.99238
O         -0.57512        6.18188       -8.24494
C          0.82268        6.14810       -8.16566
C          1.27411        5.66930       -6.79148
C          0.64246        4.33418       -6.46938
O          1.06394        3.98122       -5.16176
O          2.68886        5.56322       -6.82775
O          1.32734        5.30560       -9.17257
C         -2.70617        5.21962       -8.12479
O         -3.12362        6.23376       -7.22787
O         -0.04939        1.40560       -5.06116
O         -3.21145        0.45171       -3.51341
O         -1.91450        0.11647       -6.88348
O         -5.63748        0.74811       -4.99221
H         -5.48657        0.76087       -7.00690
H         -5.65185        2.37150       -6.29025
H         -3.39341        1.87557       -7.22497
H         -3.60010       -0.54297       -5.84054
H         -1.55388       -0.43746       -4.39003
H         -1.13508        1.93280       -3.45299
H         -1.94920        3.77377       -4.53736
H         -1.26021        5.13285       -5.85878
H         -0.92168        4.18856       -8.73424
H          1.13988        7.17868       -8.33166
H          0.95776        6.40272       -6.04398
H          0.99564        3.59580       -7.19673
H          0.84299        3.04000       -5.04530
H          2.93161        5.04700       -6.04936
H          2.22180        5.07241       -8.89032
H         -3.27078        4.32506       -7.87330
H         -2.91893        5.49494       -9.16033
H         -2.56980        6.99835       -7.41798
H         -0.22872        1.22778       -5.99655
H         -2.77537        0.49312       -2.65713
H         -1.63505       -0.80408       -6.85254
H         -5.07423        1.03852       -4.26476
