40
-1161.23984856
O          9.80120        2.08176        0.94932
C          8.70632        2.76503        0.55618
O          8.07485        3.49244        1.28206
C          8.33004        2.47387       -0.91093
O          7.57371        1.30345       -0.79617
C          7.51779        3.61082       -1.49378
C          8.34202        4.86528       -1.75403
H          8.26031        5.55638       -0.91855
O          7.80343        5.47979       -2.93177
C          9.83635        4.54631       -1.94628
H         10.25374        5.29248       -2.62591
N         10.53367        4.63975       -0.68085
C         10.70176        5.85376       -0.08523
C         11.36364        5.82456        1.26725
O         10.29589        6.88271       -0.61484
C         10.07326        3.15605       -2.51349
H         11.14926        2.96103       -2.44723
O          9.46905        2.15410       -1.68942
C          9.74708        3.03448       -4.00375
H         10.34629        3.81476       -4.49070
O          8.38106        3.18833       -4.35063
C         10.19324        1.71861       -4.63274
H         11.27197        1.61117       -4.51382
O          9.96288        1.80088       -6.03964
C          9.51292        0.46341       -4.10173
O          9.90106       -0.65170       -4.88306
H          9.87908        2.24710        1.90133
H          7.33336        1.04018       -1.69311
H          6.68862        3.82044       -0.82448
H          7.12330        3.24967       -2.44117
H          8.14551        6.38077       -2.96346
H         10.90918        3.80759       -0.25543
H         12.02188        4.96705        1.38887
H         10.58415        5.77715        2.02730
H         11.92379        6.74338        1.40719
H          8.11794        4.10155       -4.14493
H          9.08661        2.19992       -6.12493
H          8.42720        0.60619       -4.12924
H          9.81095        0.26239       -3.07790
H          9.86932       -0.34327       -5.79627
