24
-686.53105602
C         -1.58571        1.00136       -1.17337
C         -1.07210        0.32977        0.09489
C         -0.10923        1.14027        0.97134
C          1.34476        1.07445        0.49847
C          1.75295       -0.36156        0.20736
C          0.73094       -1.04809       -0.68505
O         -0.56964       -0.99189       -0.13112
O          1.09688       -2.40115       -0.70470
O          1.82622       -1.03164        1.45854
O          1.55993        1.82765       -0.70078
O         -0.18290        0.70896        2.31850
O         -0.65214        1.18878       -2.21785
H         -2.04920        1.94951       -0.87289
H         -2.37053        0.36820       -1.58327
H         -1.95192        0.17723        0.72218
H         -0.43482        2.18308        0.96312
H          1.97841        1.45099        1.30236
H          2.72079       -0.36711       -0.29909
H          0.73248       -0.61744       -1.68662
H          0.37167       -2.88264       -1.11643
H          1.71724       -1.97008        1.25115
H          1.67851        2.74878       -0.45162
H          0.32694       -0.11362        2.36025
H          0.13646        1.60099       -1.83595
