24
-686.52734475
C         -1.10949       -0.13818        2.97703
C          0.03136       -0.45944        2.04539
C          1.02611        0.69891        1.90195
C          1.51479        0.78506        0.44893
C          1.73049       -0.61697       -0.10716
C          0.40428       -1.39817       -0.07238
O         -0.55352       -0.76824        0.76829
O         -0.11575       -1.42890       -1.36192
O          2.71159       -1.22705        0.73258
O          0.62842        1.51733       -0.37420
O          2.08104        0.57938        2.83903
O         -1.97028       -1.24404        3.17381
H         -1.65304        0.72474        2.57891
H         -0.70252        0.13034        3.94965
H          0.56349       -1.34244        2.41408
H          0.53130        1.64531        2.12186
H          2.46256        1.31971        0.44596
H          2.06765       -0.56100       -1.14187
H          0.58800       -2.40671        0.32233
H         -0.96134       -1.88825       -1.32494
H          3.00533       -2.04511        0.32233
H         -0.20350        1.02962       -0.38763
H          2.61692       -0.16728        2.54525
H         -2.26429       -1.51212        2.29821
