45
-1296.689343
C          6.29577        7.94163       -3.71767
C          5.27214        8.74494       -2.91936
C          4.98869       10.16784       -3.40545
C          5.94809       11.21239       -2.83985
C          6.17451       11.01082       -1.33892
C          6.54428        9.55364       -1.09136
O          5.49006        8.71114       -1.51046
O          6.68815        9.28285        0.27186
C          8.01114        9.54944        0.73461
C          8.77803        8.25239        0.91898
O         10.07918        8.55520        1.42669
C         10.05017        9.24133        2.65230
C          9.27820       10.55903        2.58948
C          7.88638       10.32080        2.03111
O          7.26665       11.57095        1.79798
O          9.28203       11.18732        3.85242
O          9.43619        8.48121        3.67592
C          8.94074        7.47440       -0.36943
O          9.52294        8.27861       -1.38479
O          5.05499       11.40996       -0.57902
O          7.16701       11.08630       -3.57623
O          3.66167       10.44312       -2.96604
O          7.64906        8.36806       -3.66272
H          5.94422        7.90551       -4.75449
H          6.28535        6.92640       -3.32630
H          4.32967        8.21180       -3.05961
H          5.05251       10.19205       -4.49795
H          5.51783       12.20581       -2.99912
H          7.00303       11.64582       -1.01562
H          7.46324        9.31482       -1.62043
H          8.55455       10.17163        0.01874
H          8.23598        7.61845        1.62780
H         11.09447        9.43696        2.89275
H          9.80486       11.22980        1.91087
H          7.30597        9.72290        2.74270
H          6.40424       11.38409        1.40170
H          8.97945       10.52206        4.48056
H         10.01238        7.73705        3.87456
H          7.95055        7.11955       -0.66514
H          9.57209        6.60674       -0.16563
H          9.06634        8.07979       -2.21318
H          4.36429       10.75440       -0.74613
H          7.81115       11.70273       -3.21159
H          3.46421       11.36641       -3.15407
H          7.66204        9.32189       -3.83959
