24
-686.53184345
C         -1.81330       -0.50554        1.80645
C         -0.32929       -0.79818        1.94491
C          0.57018        0.43687        1.90580
C          1.07383        0.79278        0.50594
C          1.62638       -0.45265       -0.19094
C          0.56153       -1.54421       -0.21809
O          0.09532       -1.85370        1.07594
O         -0.49184       -1.20354       -1.10897
O          2.81362       -0.92115        0.40886
O          0.06767        1.40602       -0.28806
O          1.67527        0.12555        2.76089
O         -2.17817        0.13080        0.58822
H         -2.11371        0.16448        2.61090
H         -2.35425       -1.44613        1.91978
H         -0.20090       -1.21463        2.94602
H          0.01087        1.28852        2.30556
H          1.89304        1.50869        0.61005
H          1.87792       -0.19076       -1.21865
H          0.99623       -2.48014       -0.55804
H         -0.35116       -0.27926       -1.36050
H          2.62292       -1.03305        1.34951
H         -0.80577        1.17550        0.08729
H          2.28674        0.86978        2.73763
H         -1.95713       -0.50995       -0.10938
