40
-1161.24779333
O          3.33676        6.35640        0.04918
C          2.84879        5.32067        0.76457
O          2.62340        5.37778        1.94895
C          2.62740        4.05845       -0.07673
O          1.72500        3.25687        0.63786
C          2.00560        4.32585       -1.43852
C          2.94911        4.52446       -2.63828
H          2.99518        5.57749       -2.91112
O          2.40772        3.87348       -3.77414
C          4.39108        4.06751       -2.37080
H          4.79084        3.67795       -3.30613
N          5.21441        5.19654       -1.98698
C          6.57064        5.11359       -2.06327
C          7.32613        6.31408       -1.54798
O          7.13814        4.13189       -2.52998
C          4.48989        2.98009       -1.30460
H          5.54919        2.87276       -1.06539
O          3.90608        3.44984       -0.07979
C          4.03904        1.60683       -1.77399
H          4.61237        1.42366       -2.69158
O          2.65091        1.60154       -2.08595
C          4.38122        0.44396       -0.82569
H          5.45676        0.27021       -0.90475
O          3.70771       -0.71006       -1.32952
C          4.02853        0.60077        0.64596
O          2.62536        0.52328        0.84486
H          3.45415        7.08554        0.67776
H          1.83706        3.48740        1.57376
H          1.32214        5.16785       -1.34658
H          1.40214        3.44836       -1.64477
H          2.30866        2.94527       -3.51478
H          4.79695        5.93526       -1.44713
H          7.97529        6.67943       -2.33971
H          7.95780        5.99792       -0.72090
H          6.67324        7.11881       -1.21820
H          2.44233        0.66089       -2.19109
H          2.98071       -0.85509       -0.70621
H          4.45047        1.51642        1.05483
H          4.45600       -0.24882        1.17742
H          2.24962        1.38695        0.61214
