24
-686.52699252
C         -1.22111        0.82273       -1.92786
C         -0.54362        0.91571       -0.57336
C          0.83680        1.57692       -0.66979
C          1.64224        1.13171        0.52824
C          1.90011       -0.36009        0.43986
C          0.72404       -1.05847       -0.25851
O         -0.49365       -0.37327        0.03209
O          0.59863       -2.37368        0.12554
O          2.03974       -0.95106        1.72460
O          2.89204        1.79279        0.61506
O          0.74613        2.99008       -0.61100
O         -1.19270        2.13921       -2.48619
H         -2.24291        0.46441       -1.80193
H         -0.67699        0.11968       -2.56348
H         -1.14284        1.54360        0.08700
H          1.35238        1.27564       -1.58992
H          1.04230        1.31920        1.42473
H          2.80343       -0.52055       -0.15502
H          0.88598       -1.04893       -1.33958
H          0.87842       -2.41212        1.04982
H          2.78818       -0.53085        2.15825
H          2.70493        2.73151        0.49619
H          0.18420        3.25196       -1.35083
H         -1.60753        2.11457       -3.35152
