45
-1296.68986711
C          0.74523        4.15726        6.20729
C          1.05596        5.60394        5.88608
C         -0.09699        6.53377        6.23612
C          0.17683        7.92728        5.71109
C          0.47601        7.86904        4.22802
C          1.64571        6.92471        3.99599
O          1.31718        5.63454        4.47788
O          4.96681        9.99924        2.31269
C          4.36480        8.73011        2.50318
C          4.88444        8.05822        3.76300
O          6.24356        7.58421        3.64879
C          6.73215        7.31976        2.36899
C          5.66121        6.81372        1.42400
C          4.53555        7.83668        1.26592
O          3.29884        7.17658        1.00789
O          6.20482        6.42111        0.17625
O          7.28622        8.48143        1.74758
C          4.00079        6.90634        4.22491
O          2.75913        7.45706        4.64887
O          0.78572        9.13343        3.68666
O         -0.91124        8.81440        5.98810
O         -0.22711        6.52835        7.64695
O         -0.34520        3.67324        5.44243
H          0.46400        4.07448        7.25373
H          1.64354        3.55983        6.03247
H          1.93945        5.92407        6.44489
H         -1.00677        6.14390        5.76206
H          1.03103        8.35433        6.23491
H         -0.38638        7.42829        3.71076
H          1.84507        6.79786        2.93126
H          3.30074        8.91800        2.64155
H          4.89862        8.80682        4.55387
H          7.51678        6.57466        2.49432
H          5.24573        5.90782        1.86150
H          4.78725        8.50268        0.43705
H          3.42300        6.64745        0.21210
H          6.70550        7.17776       -0.15002
H          8.09171        8.70896        2.22372
H          4.48449        6.40449        5.06354
H          3.83663        6.17425        3.43393
H          5.89826        9.82863        2.12105
H          0.22566        9.77240        4.14177
H         -1.69336        8.45294        5.55418
H         -0.76920        7.29138        7.87615
H         -0.11230        3.83377        4.52209
