45
-1296.69716826
C         -1.33412        3.49243        0.16329
C         -0.11508        2.59165        0.24072
C         -0.51625        1.11341        0.33328
C          0.20764        0.46228        1.48309
C         -0.13926        1.26801        2.71771
C          0.49885        2.66740        2.60567
O          0.79195        3.00699        1.25680
O          4.43462        5.54075        3.69741
C          3.13138        6.08864        3.61009
C          2.19902        5.03126        3.03940
O          0.87574        5.57351        2.96384
C          0.76232        6.68026        2.09068
C          1.68505        7.80695        2.53433
C          3.10089        7.28484        2.68757
O          3.95785        8.27255        3.24338
O          1.65043        8.89658        1.62644
O          1.10695        6.37108        0.77245
C          2.13205        3.81324        3.93254
O          1.72830        2.61307        3.26743
O          0.25532        0.60223        3.89938
O         -0.26647       -0.86798        1.58727
O         -0.23447        0.51190       -0.91822
O         -1.00511        4.83389       -0.20415
H         -1.82152        3.55622        1.13567
H         -2.04678        3.06837       -0.54701
H          0.45722        2.69593       -0.68170
H         -1.58861        1.02444        0.55110
H          1.28740        0.48263        1.30793
H         -1.22655        1.36537        2.76266
H         -0.13077        3.43601        3.05860
H          2.77023        6.39415        4.59988
H          2.54869        4.73669        2.04831
H         -0.28365        6.98108        2.16568
H          1.34340        8.18639        3.49674
H          3.47248        6.96643        1.70778
H          3.84150        9.06564        2.70793
H          1.63553        8.49192        0.74942
H          0.43036        5.75185        0.44106
H          1.45468        4.02424        4.76482
H          3.12580        3.60034        4.31621
H          5.03150        6.28927        3.81193
H          1.12656        0.97205        4.10654
H         -0.03037       -1.16312        2.47536
H         -0.40537       -0.43085       -0.80862
H         -0.87834        4.85131       -1.15750
