40
-1161.25386228
O         13.42977        1.84301       11.13047
C         12.16069        1.75116       11.54462
O         11.64270        0.73381       11.94439
C         11.38955        3.06935       11.42717
O         10.22852        2.96674       12.17460
C         12.18411        4.28983       11.83744
C         11.39469        5.58256       11.61318
H         12.10048        6.36566       11.30720
O         10.76263        5.91712       12.82207
C         10.40190        5.40269       10.44826
H          9.49250        4.96848       10.87088
N         10.08817        6.64479        9.76270
C          9.39210        7.64564       10.34775
C          9.00109        8.78400        9.44022
O          9.08813        7.64462       11.54205
C         11.01417        4.42593        9.44672
H         12.01938        4.77439        9.18031
O         11.08922        3.11653       10.02193
C         10.25196        4.21703        8.14074
H         10.71745        3.35758        7.65296
O         10.43686        5.38244        7.34177
C          8.77459        3.85794        8.34943
H          8.33687        4.45990        9.15223
O          8.66337        2.47059        8.64185
C          7.97141        4.10259        7.09061
O          8.64286        3.61571        5.93060
H         13.80854        0.95450       11.20658
H         10.03978        2.01980       12.25655
H         13.10709        4.29849       11.26174
H         12.43328        4.22352       12.89440
H         10.08761        6.58377       12.59655
H         10.21247        6.66533        8.75993
H          9.37457        8.66722        8.42615
H          9.38003        9.71071        9.86357
H          7.91543        8.84970        9.42177
H         10.13663        5.13670        6.45647
H          9.33230        2.27985        9.31302
H          7.83017        5.16872        6.93447
H          6.99282        3.63480        7.20711
H          8.75540        2.66769        6.05805
