45
-1296.706209
C          0.81037       -3.33718        1.41821
C          0.02924       -2.71227        2.55198
C         -1.14786       -3.55310        3.00536
C         -1.91906       -2.78100        4.05131
C         -2.35976       -1.43753        3.50078
C         -1.16579       -0.68012        2.93620
O         -0.45410       -1.46465        2.02396
O         -0.39432       -0.31195        4.07576
C          0.86904        0.28912        3.80898
C          1.60808        0.25670        5.14383
O          2.90792        0.84738        5.01533
C          2.89171        2.18766        4.59565
C          2.16178        2.33237        3.27337
C          0.76657        1.72722        3.34328
O          0.17245        1.78364        2.05641
O          2.09741        3.68440        2.85198
O          2.23003        3.03664        5.50816
C          1.85588       -1.14709        5.65319
O          2.59221       -1.93110        4.73533
O         -3.04489       -0.68603        4.49171
O         -3.03642       -3.57180        4.43053
O         -0.64703       -4.77145        3.52486
O          1.83626       -2.46810        0.96806
H          0.12141       -3.58708        0.60495
H          1.28611       -4.24899        1.76726
H          0.70443       -2.52799        3.39011
H         -1.80834       -3.73601        2.14887
H         -1.26017       -2.61971        4.91158
H         -3.07018       -1.60638        2.69183
H         -1.46747        0.20694        2.38596
H          1.41451       -0.30149        3.06914
H          1.02082        0.80757        5.88469
H          3.93940        2.46872        4.49389
H          2.72623        1.79709        2.51025
H          0.16419        2.28602        4.06919
H          0.34193        2.67577        1.72833
H          1.83442        4.19114        3.63028
H          2.77901        3.12002        6.29388
H          0.90405       -1.65031        5.80226
H          2.36803       -1.07575        6.61625
H          3.40546       -1.45296        4.54303
H         -2.35430       -0.29219        5.03875
H         -3.58458       -3.01702        4.99689
H         -1.38451       -5.19222        3.98107
H          1.39705       -1.63734        0.75691
