24
-686.51959033
C          1.12227       -0.46252        3.82019
C          1.92921       -0.97362        2.63258
C          2.57484        0.12053        1.78933
C          1.60354        0.80012        0.82753
C          0.68493       -0.21370        0.11365
C          1.00896       -1.65027        0.47157
O          1.02682       -1.79765        1.89693
O         -0.03232       -2.44396        0.01242
O          0.76346       -0.11358       -1.29599
O          0.87945        1.84492        1.44480
O          3.60568       -0.42190        0.96460
O         -0.09939        0.13282        3.40006
H          1.67725        0.29598        4.36817
H          0.91729       -1.29886        4.49048
H          2.73936       -1.59989        3.02932
H          2.97736        0.88706        2.45725
H          2.22265        1.26470        0.06199
H         -0.33940       -0.03961        0.46003
H          1.97038       -1.95171        0.05424
H          0.23868       -3.36276        0.09280
H          0.47611        0.77172       -1.53736
H          0.36546        1.43943        2.16288
H          4.24548       -0.85808        1.53520
H         -0.53938       -0.55188        2.87843
