24
-686.52125193
C          0.12908        1.00809       -2.65839
C         -0.37116        1.01941       -1.22672
C          0.57689        1.81880       -0.32324
C          1.19825        0.89459        0.69932
C          1.73567       -0.32761       -0.02096
C          0.54037       -1.10754       -0.60017
O         -0.60431       -0.29204       -0.71875
O          0.22185       -2.10704        0.33104
O          2.53530       -1.11675        0.83935
O          2.23760        1.60737        1.34678
O         -0.15585        2.87198        0.27935
O         -0.77425        0.24909       -3.44078
H          1.14070        0.59088       -2.70551
H          0.18308        2.04909       -2.98988
H         -1.34860        1.49513       -1.20035
H          1.40043        2.23192       -0.91917
H          0.43111        0.58695        1.41576
H          2.39221        0.00559       -0.82623
H          0.77550       -1.55612       -1.57006
H         -0.67418       -2.39833        0.13252
H          1.93392       -1.75515        1.24469
H          2.76959        0.94198        1.80005
H          0.44319        3.29792        0.90288
H         -0.49428        0.30700       -4.35752
