24
-686.52602556
C          1.35835        2.12520       -2.32979
C          0.28825        1.43911       -1.49059
C          0.43489        1.69561       -0.00041
C          1.52130        0.84652        0.66593
C          1.79680       -0.45970       -0.08158
C          0.58111       -0.90700       -0.88038
O          0.19436        0.05126       -1.82835
O         -0.46446       -1.29317       -0.01135
O          2.20953       -1.47959        0.81041
O          2.69301        1.65939        0.77031
O         -0.84636        1.40927        0.57866
O          2.68810        1.73264       -2.06272
H          1.22841        3.20770       -2.21684
H          1.16829        1.87032       -3.36993
H         -0.66604        1.88436       -1.78392
H          0.68346        2.74920        0.14806
H          1.17141        0.58981        1.66965
H          2.61084       -0.28891       -0.78264
H          0.83366       -1.80100       -1.44497
H         -0.87087       -0.47237        0.30946
H          1.39296       -1.85320        1.16697
H          3.39407        1.10068        1.12566
H         -0.81912        1.67499        1.50379
H          2.89784        1.97146       -1.14911
