45
-1296.69235114
C          3.64196        9.78185        7.43157
C          3.34474        8.32494        7.80751
C          3.78337        7.31978        6.75675
C          3.00736        7.52772        5.44906
C          1.57053        8.00491        5.68459
C          1.09845        7.72936        7.10551
O          1.93373        8.23848        8.10245
O         -0.74752        3.32094        7.37076
C         -1.31619        4.50939        6.85503
C         -1.22399        5.56839        7.94093
O         -1.81239        6.79309        7.49194
C         -3.16035        6.68877        7.10593
C         -3.35290        5.63936        6.02085
C         -2.76351        4.31693        6.47155
O         -2.79955        3.35409        5.43027
O         -4.71734        5.49551        5.66593
O         -4.00232        6.30583        8.17283
C          0.20495        5.87430        8.32712
O          0.97318        6.30482        7.19951
O          0.65157        7.46893        4.75215
O          3.64539        8.52308        4.63283
O          3.69073        5.98738        7.22438
O          4.94090        9.97091        6.90431
H          3.56401       10.38991        8.33032
H          2.88098       10.13420        6.73407
H          3.85221        8.07083        8.73694
H          4.83934        7.49261        6.55702
H          2.97357        6.57203        4.92473
H          1.55688        9.08244        5.53342
H          0.11654        8.16663        7.27147
H         -0.76773        4.85083        5.97097
H         -1.74515        5.19955        8.82998
H         -3.42563        7.67911        6.73765
H         -2.83034        5.97173        5.12437
H         -3.31152        3.95362        7.34775
H         -3.70199        3.34682        5.09133
H         -5.20434        5.47007        6.49882
H         -4.05473        7.04049        8.79187
H          0.66332        4.96301        8.70574
H          0.23559        6.63732        9.10495
H         -0.98089        2.61840        6.75315
H          0.47554        6.56979        5.05298
H          4.28895        8.07415        4.07711
H          2.74462        5.81255        7.34458
H          4.88068        9.69543        5.98195
