45
-1296.693233
C         -2.56461       -3.06302        1.89573
C         -1.51821       -2.21693        2.58711
C         -1.64101       -2.20391        4.11716
C         -2.41522       -0.98155        4.58889
C         -1.81091        0.32491        4.05268
C         -1.04975        0.10742        2.72985
O         -1.64776       -0.91120        1.98773
O          0.30635       -0.19107        3.00474
C          1.29162        0.54386        2.29271
C          2.20082       -0.43530        1.56210
O          3.32106        0.25111        0.98210
C          4.09298        1.00064        1.88541
C          3.24756        2.04322        2.60024
C          2.07249        1.37158        3.28292
O          1.18513        2.34329        3.82744
O          4.00702        2.79892        3.52687
O          4.67256        0.20971        2.89818
C          1.48990       -1.09157        0.39498
O          1.06624       -0.13387       -0.55951
O         -1.01392        0.89756        5.06370
O         -3.75366       -1.17265        4.14609
O         -0.38387       -2.29217        4.76600
O         -2.35755       -3.08328        0.49256
H         -3.55692       -2.68973        2.15346
H         -2.47260       -4.09193        2.23895
H         -0.52936       -2.61301        2.34390
H         -2.19334       -3.09060        4.42760
H         -2.35318       -0.93892        5.67786
H         -2.65220        0.98158        3.80054
H         -1.10024        1.00089        2.10772
H          0.81746        1.20087        1.55962
H          2.54577       -1.19687        2.26674
H          4.85993        1.47763        1.27579
H          2.87003        2.74786        1.85985
H          2.44114        0.71178        4.07472
H          1.72730        2.95716        4.33857
H          4.53752        2.16019        4.01930
H          5.35268       -0.34238        2.49983
H          0.59450       -1.59541        0.74863
H          2.15670       -1.83125       -0.05371
H          1.86092        0.31668       -0.86277
H         -0.32549        1.44528        4.65526
H         -4.28346       -0.44722        4.48868
H          0.13472       -1.52901        4.47975
H         -2.34717       -2.16255        0.21175
