24
-686.52560648
C         -1.66686       -0.27546        2.54827
C         -0.37403       -0.42271        1.76248
C          0.29054        0.91094        1.47223
C          1.62962        0.68302        0.80484
C          1.57459       -0.51686       -0.14469
C          0.14817       -0.81844       -0.57200
O         -0.73315       -1.02412        0.51390
O          0.20322       -2.01175       -1.31207
O          2.12425       -1.62683        0.53622
O          1.95056        1.90618        0.15109
O          0.42498        1.64361        2.68313
O         -1.43602       -0.02277        3.91836
H         -2.21113       -1.21505        2.48281
H         -2.28054        0.50397        2.08448
H          0.30968       -1.07221        2.31450
H         -0.35397        1.45750        0.77426
H          2.36009        0.44087        1.58035
H          2.14589       -0.28117       -1.04854
H         -0.23638       -0.00475       -1.19560
H         -0.69668       -2.35073       -1.36356
H          1.80239       -2.40803        0.06811
H          2.87287        1.87066       -0.11915
H          0.85207        2.47733        2.45999
H         -0.87973        0.76338        3.95509
