45
-1296.691241
C         -3.92029        0.02803        1.30259
C         -4.14097        1.40265        1.92292
C         -5.11301        2.32187        1.17942
C         -4.45826        3.17645        0.09337
C         -3.15111        3.79424        0.59403
C         -2.26957        2.69399        1.15814
O         -2.93439        2.08536        2.26487
O         -1.12035        3.29843        1.65851
C         -0.12227        2.36657        2.07379
C          0.50501        2.90734        3.35048
O          1.47925        1.97011        3.82597
C          2.52427        1.73520        2.91979
C          2.00871        1.25372        1.57090
C          0.94911        2.19798        1.02389
O          0.37703        1.66608       -0.15907
O          3.06273        1.07912        0.63800
O          3.28579        2.89474        2.64910
C         -0.51674        3.10413        4.46057
O         -1.24112        4.30781        4.30603
O         -3.40301        4.80382        1.54594
O         -4.26133        2.32961       -1.03727
O         -5.66140        3.17363        2.18758
O         -3.24894       -0.01606        0.06260
H         -4.90247       -0.45800        1.24548
H         -3.30974       -0.54498        1.99848
H         -4.62189        1.21075        2.88428
H         -5.89640        1.71275        0.71883
H         -5.14313        3.99009       -0.16539
H         -2.62653        4.27098       -0.23636
H         -2.02275        1.94056        0.40993
H         -0.58714        1.40135        2.29176
H          0.97780        3.87108        3.14492
H          3.14188        0.96998        3.38964
H          1.55217        0.27366        1.70783
H          1.39889        3.17705        0.82528
H          1.11737        1.36194       -0.69773
H          3.62172        1.86086        0.72775
H          3.74334        3.14488        3.45778
H          0.01979        3.17370        5.40469
H         -1.18064        2.23545        4.50273
H         -1.61324        4.29195        3.41468
H         -3.93797        4.39643        2.24179
H         -3.74311        2.80903       -1.69211
H         -6.28128        3.77920        1.76744
H         -3.66892        0.62665       -0.52545
