24
-686.53008744
C         -0.09687        1.90399       -1.66439
C         -0.18106        1.20952       -0.31668
C          0.85100        1.63219        0.73818
C          2.17168        0.86377        0.64427
C          1.89514       -0.63501        0.57382
C          0.92797       -0.93689       -0.55494
O         -0.28522       -0.21479       -0.45162
O          0.58745       -2.29134       -0.43971
O          1.33529       -1.04747        1.81438
O          2.99211        1.27139       -0.42938
O          0.29239        1.49488        2.03353
O          1.10532        1.64391       -2.39906
H         -0.14038        2.98073       -1.50299
H         -0.96309        1.61254       -2.25792
H         -1.14371        1.50875        0.10209
H          1.06473        2.69310        0.59901
H          2.72295        1.06279        1.56222
H          2.83202       -1.15912        0.37211
H          1.41142       -0.74131       -1.51628
H         -0.21050       -2.42771       -0.96147
H          0.87430       -1.87683        1.63154
H          2.43460        1.40996       -1.21211
H          0.38564        0.55816        2.26271
H          0.93391        0.92477       -3.01105
