24
-686.52605868
C         -1.22860        1.13014       -1.35099
C         -0.10869        1.10515       -0.32820
C          1.23788        0.85507       -0.97701
C          2.36427        0.86191        0.05806
C          3.64357        0.26675       -0.52847
C          4.78356        0.48506        0.43396
O          5.80525        1.03739        0.07973
O          3.96986        0.84624       -1.77593
O          2.59334        2.17691        0.52900
O          1.44403        1.89719       -1.92304
O         -0.32390        0.04831        0.59255
O         -2.49268        1.15814       -0.68431
H         -1.11029        1.96917       -2.03387
H         -1.21605        0.20325       -1.92231
H         -0.07169        2.06808        0.19468
H          1.20331       -0.12500       -1.46455
H          2.06085        0.25413        0.91104
H          3.49923       -0.81456       -0.64501
H          4.64389        0.12460        1.46292
H          4.87108        1.19222       -1.66215
H          2.45786        2.75112       -0.23679
H          2.31347        1.72420       -2.31437
H         -1.27631        0.03885        0.75047
H         -2.65096        2.06088       -0.39531
