45
-1296.69202762
C         -5.58892       -4.80615        6.30496
C         -4.34811       -4.12273        6.84796
C         -3.89632       -4.71263        8.17143
C         -2.63923       -4.00799        8.61884
C         -2.93401       -2.52734        8.76105
C         -3.54220       -1.98634        7.46783
O         -4.64300       -2.73310        7.03540
O         -3.20037        2.21389        5.24759
C         -1.93072        1.56516        5.33128
C         -2.13451        0.40225        6.30279
O         -0.94693        0.20225        7.06573
C         -0.82536        1.24580        8.05481
C         -0.97504        2.64548        7.39289
C         -0.82612        2.48380        5.87808
O          0.45405        1.99635        5.51539
O         -2.16699        3.32287        7.71501
O         -1.77326        1.09764        9.05129
C         -2.47534       -0.90290        5.61506
O         -2.48399       -1.99042        6.53087
O         -1.75432       -1.80392        9.10041
O         -2.24402       -4.58414        9.85500
O         -3.69195       -6.10423        7.98625
O         -6.59444       -5.02177        7.27923
H         -5.28494       -5.74460        5.83978
H         -6.02269       -4.16364        5.54160
H         -3.54599       -4.22862        6.11132
H         -4.67944       -4.53117        8.91412
H         -1.86043       -4.15334        7.86270
H         -3.64272       -2.38662        9.57632
H         -3.92210       -0.97649        7.62087
H         -1.60989        1.20771        4.34854
H         -2.93880        0.68988        6.98369
H          0.19161        1.10922        8.42547
H         -0.16279        3.27025        7.75896
H         -0.92534        3.46691        5.41771
H          0.50295        1.09964        5.86877
H         -2.87223        2.98682        7.14935
H         -1.70576        0.18512        9.37762
H         -1.70517       -1.14695        4.88488
H         -3.43548       -0.80669        5.10168
H         -3.15055        2.88974        4.56359
H         -1.31135       -1.63722        8.25089
H         -1.48986       -4.07626       10.17351
H         -3.20254       -6.40838        8.75956
H         -6.32723       -5.79310        7.78712
