24
-686.52822135
C         -1.53128       -0.37527        2.63799
C         -0.28135       -0.59965        1.80734
C          0.68914        0.58499        1.87069
C          1.27361        0.84927        0.47840
C          1.62953       -0.47960       -0.17989
C          0.33491       -1.31854       -0.36312
O         -0.71448       -0.81624        0.47185
O          0.58513       -2.65824       -0.12649
O          2.58330       -1.20410        0.59262
O          0.37621        1.59516       -0.32205
O          1.72102        0.21104        2.79923
O         -1.22260        0.05622        3.95243
H         -2.13682       -1.28303        2.63325
H         -2.11465        0.42446        2.18479
H          0.24785       -1.48655        2.17308
H          0.17611        1.48324        2.21590
H          2.17447        1.45489        0.58098
H          2.07088       -0.30486       -1.15893
H         -0.06931       -1.20134       -1.36542
H          1.44853       -2.68031        0.31777
H          2.54187       -0.86956        1.50287
H         -0.44455        1.08596       -0.33669
H          2.16281        1.01307        3.09594
H         -0.67925       -0.61941        4.36766
