45
-1296.695343
C         -3.16801        1.24513       -0.81423
C         -2.61311        0.49009        0.38596
C         -1.18026        0.82144        0.79919
C         -0.14224        0.20143       -0.13386
C         -0.42063       -1.28470       -0.34848
C         -1.87986       -1.47407       -0.73355
O         -2.75387       -0.93738        0.22252
O         -2.20937       -2.84499       -0.73385
C         -2.19773       -3.46844       -2.01162
C         -3.62733       -3.70222       -2.48344
O         -3.60029       -4.34985       -3.75945
C         -2.95348       -5.59874       -3.74625
C         -1.51831       -5.48457       -3.25032
C         -1.47016       -4.78396       -1.90239
O         -0.13222       -4.52118       -1.51516
O         -0.87957       -6.74698       -3.18937
O         -3.58271       -6.53020       -2.89445
C         -4.41224       -2.41225       -2.67828
O         -4.90823       -1.86765       -1.46667
O         -0.12938       -1.97763        0.84969
O         -0.21599        0.88522       -1.38202
O         -0.93778        0.40353        2.13000
O         -4.55910        1.04022       -0.96169
H         -2.62274        1.00494       -1.72783
H         -3.02787        2.31044       -0.63339
H         -3.25187        0.71565        1.23794
H         -1.05067        1.90351        0.78023
H          0.83735        0.31867        0.33302
H          0.20138       -1.65620       -1.17119
H         -2.05675       -1.03905       -1.72303
H         -1.67439       -2.84132       -2.74113
H         -4.14940       -4.32239       -1.75009
H         -2.97641       -5.93920       -4.78087
H         -0.95493       -4.88762       -3.96730
H         -1.97447       -5.40175       -1.15162
H          0.35272       -5.34574       -1.64113
H         -1.51582       -7.34572       -2.77893
H         -4.43511       -6.76114       -3.27686
H         -5.27661       -2.63802       -3.29873
H         -3.79559       -1.68726       -3.22084
H         -4.21902       -1.90558       -0.78675
H         -0.43419       -2.88459        0.71068
H          0.58927        0.69608       -1.87203
H         -0.85640       -0.55995        2.10369
H         -4.71661        0.10920       -1.17545
