45
-1296.696020
C         -1.51896        8.13230       -2.75734
C         -0.34684        8.98363       -3.21791
C         -0.39004        9.31087       -4.71529
C          0.79933        8.68404       -5.40862
C          0.84936        7.22812       -4.99286
C          1.19917        7.15962       -3.49350
O          0.89257        8.37191       -2.83816
O          2.58569        6.98952       -3.35833
C          3.00216        5.96718       -2.46750
C          3.36441        6.51191       -1.08868
O          3.75435        5.41012       -0.25248
C          4.88880        4.72008       -0.71778
C          4.68441        4.19419       -2.13167
C          4.22287        5.30552       -3.06052
O          3.86983        4.78396       -4.32902
O          5.84951        3.56347       -2.63144
O          6.03707        5.53814       -0.76942
C          2.22397        7.21451       -0.38998
O          1.01199        6.46500       -0.41911
O          1.73418        6.48273       -5.79971
O          0.60748        8.81322       -6.80635
O         -0.41828       10.72127       -4.86411
O         -1.48419        7.87415       -1.37255
H         -1.55954        7.20245       -3.33820
H         -2.44012        8.67810       -2.95930
H         -0.35542        9.92215       -2.66798
H         -1.28904        8.87063       -5.16470
H          1.71379        9.19475       -5.09276
H         -0.14779        6.80492       -5.14218
H          0.68846        6.32184       -3.01003
H          2.21133        5.22062       -2.35959
H          4.19476        7.21717       -1.18564
H          5.02910        3.89738       -0.01744
H          3.90712        3.43082       -2.10499
H          5.01684        6.05377       -3.16076
H          4.60172        4.22210       -4.61029
H          6.58421        4.14638       -2.40333
H          6.31084        5.73131        0.13253
H          2.01122        8.14418       -0.90700
H          2.52478        7.43114        0.63629
H          1.12154        5.70005        0.15374
H          2.52950        6.30246       -5.27528
H          1.21498        8.18170       -7.21122
H         -0.36757       10.89408       -5.81100
H         -0.63961        7.45393       -1.15765
