30
-819.14420507
C          1.78733       -3.85233       -4.24838
C          0.77529       -3.91331       -3.10927
C         -0.13232       -2.68033       -3.04051
C          0.12031       -1.91799       -1.76034
C          1.63236       -1.77455       -1.61185
C          2.19421       -3.16410       -1.28685
O          1.42642       -4.20034       -1.87097
N          2.02641       -0.82536       -0.60728
C          2.45447        0.46317       -0.80245
O          2.76192        1.16900        0.14711
C          2.52195        0.95076       -2.23011
O         -0.53440       -0.66735       -1.89626
O         -1.47721       -3.11920       -3.14591
O          1.15686       -3.65265       -5.50010
H          2.46219       -3.00634       -4.12227
H          2.38759       -4.76500       -4.23031
H          0.12127       -4.77043       -3.27228
H          0.10813       -2.01248       -3.87436
H         -0.28036       -2.47994       -0.91294
H          2.03564       -1.44704       -2.56876
H          3.23708       -3.25302       -1.60895
H          2.05331       -1.14739        0.34962
H          2.79624        1.99934       -2.20586
H          3.27829        0.40002       -2.78917
H          1.56694        0.82708       -2.73675
H         -0.41921       -0.18942       -1.06764
H         -2.02806       -2.33284       -3.06219
H          0.55242       -4.38527       -5.65091
O          2.10259       -3.32747        0.10104
H          2.27842       -4.25493        0.29012
