24
-686.54050987
C         -0.10540        2.42602       -2.57449
C          0.10423        1.48258       -1.40924
C          1.12005        2.00415       -0.40810
C          1.37451        0.94712        0.64018
C          1.84176       -0.33444       -0.02095
C          0.83530       -0.77254       -1.07489
O          0.56712        0.25413       -1.99441
O         -0.31618       -1.18208       -0.36715
O          2.07106       -1.35371        0.93805
O          2.35933        1.45410        1.52803
O          0.57414        3.17824        0.16739
O          1.08131        2.61188       -3.32454
H         -0.39764        3.40026       -2.19237
H         -0.91005        2.03416       -3.20206
H         -0.84700        1.32060       -0.89547
H          2.05625        2.22399       -0.92998
H          0.43860        0.75809        1.17719
H          2.79697       -0.14827       -0.51055
H          1.23272       -1.59307       -1.67196
H         -0.90558       -1.62349       -0.98624
H          1.19860       -1.69353        1.17190
H          2.60925        0.72555        2.10735
H          1.15256        3.41202        0.90172
H          1.37578        1.73224       -3.58101
