45
-1296.692097
C          1.33437        2.95715        1.56545
C          2.76451        2.61110        1.20505
C          3.03798        2.53801       -0.28153
C          4.51789        2.29534       -0.46241
C          4.95164        1.04691        0.29593
C          4.48697        1.12584        1.74837
O          3.09774        1.35032        1.79251
O          5.23481        2.17324        2.31357
C          5.29667        2.29230        3.73563
C          3.93502        2.22093        4.42252
O          3.10782        3.30590        4.01919
C          3.61569        4.59016        4.30247
C          5.01474        4.81451        3.70621
C          5.96399        3.64418        3.96218
O          6.40829        3.64038        5.31460
O          4.94169        5.03790        2.31463
O          2.72472        5.51130        3.74806
C          4.02622        2.07019        5.93318
O          2.73662        1.65918        6.36661
O          6.35461        0.86612        0.19629
O          4.76965        2.16497       -1.85455
O          2.63199        3.77955       -0.84990
O          1.16903        4.37683        1.58311
H          1.13738        2.60826        2.57456
H          0.62161        2.49702        0.87784
H          3.39999        3.38519        1.63052
H          2.47295        1.71122       -0.72558
H          5.05138        3.16019       -0.05264
H          4.49042        0.17405       -0.16478
H          4.65842        0.18572        2.27907
H          5.94255        1.50655        4.14141
H          3.40479        1.33899        4.06860
H          3.65080        4.76025        5.38258
H          5.43448        5.69679        4.20885
H          6.80253        3.72955        3.26671
H          6.89504        4.45600        5.46596
H          4.20063        5.64958        2.20435
H          2.18664        5.05272        3.07247
H          4.33461        2.99727        6.41129
H          4.78077        1.31202        6.16169
H          2.70428        1.74240        7.32231
H          6.73562        1.51393        0.80256
H          5.69819        1.92381       -1.94589
H          2.98524        3.80475       -1.74632
H          1.41044        4.68179        0.69905
