40
-1161.24863908
O          2.63413        4.09755        8.87953
C          3.34745        3.27413        9.67218
O          2.87727        2.68621       10.61800
C          4.82065        3.23376        9.20320
O          5.31505        4.53262        9.21869
C          5.69380        2.37488       10.10798
C          6.04495        1.02432        9.48253
H          6.26879        0.31561       10.28683
O          7.18191        1.20552        8.67334
C          4.86183        0.45705        8.69902
H          5.17343       -0.44565        8.17763
N          3.83489        0.06669        9.65091
C          2.75819       -0.65108        9.25828
C          1.71762       -0.91257       10.31298
O          2.64422       -1.09128        8.11091
C          4.31580        1.47490        7.66752
H          3.22800        1.51451        7.81411
O          4.84605        2.78810        7.85700
C          4.51653        1.12007        6.18881
H          3.92220        1.84095        5.62006
O          4.06593       -0.20145        5.93499
C          5.92830        1.15236        5.60486
H          5.78314        0.92623        4.54450
O          6.73469        0.12328        6.18883
C          6.70445        2.45771        5.71447
O          5.91387        3.56721        5.31780
H          1.73467        4.12279        9.23863
H          4.71511        5.07847        8.69427
H          5.20851        2.25655       11.07481
H          6.62778        2.91043       10.26211
H          7.11356        0.64674        7.87800
H          3.75986        0.57796       10.51635
H          1.86297       -0.30898       11.20512
H          1.75684       -1.96618       10.58259
H          0.73698       -0.71415        9.88952
H          3.47294       -0.50132        6.65166
H          6.22425       -0.68728        6.05749
H          7.55014        2.40707        5.03191
H          7.08499        2.57888        6.72599
H          5.37596        3.77760        6.08796
