24
-686.52365255
C          3.42169       -2.96874       -5.17757
C          2.96790       -1.52408       -5.10696
C          3.48984       -0.85329       -3.83556
C          2.71967        0.41573       -3.49466
C          3.13070        0.98820       -2.13778
C          2.45322        2.32155       -1.93863
O          3.09524        3.31811       -1.67807
O          4.52653        1.15308       -2.01965
O          2.86846        1.37597       -4.52802
O          4.84721       -0.54090       -4.13053
O          1.54389       -1.55471       -5.15910
O          2.82039       -3.74656       -4.15548
H          3.18193       -3.36858       -6.16543
H          4.49700       -3.01930       -5.02668
H          3.37740       -0.97848       -5.95943
H          3.41091       -1.55763       -3.00218
H          1.65781        0.17415       -3.42879
H          2.76719        0.30512       -1.35957
H          1.35876        2.34575       -2.04237
H          4.65403        2.09293       -1.80848
H          3.79910        1.32965       -4.78667
H          5.20274       -0.09062       -3.35126
H          1.24538       -0.69603       -5.47124
H          1.86991       -3.63673       -4.26209
