45
-1296.69173392
C          3.31063        3.34000        6.66779
C          4.55954        4.18929        6.57830
C          5.41645        4.11067        7.82902
C          6.56162        5.08837        7.70807
C          6.03082        6.48879        7.47242
C          5.10768        6.49304        6.26331
O          4.08763        5.53621        6.38649
O          6.29523        5.60690        0.47321
C          5.29078        5.69718        1.47940
C          5.85649        5.48793        2.89233
O          5.61431        4.15034        3.36951
C          5.86370        3.16191        2.38346
C          4.77563        3.24126        1.29001
C          4.19769        4.66317        1.22619
O          3.12080        4.83417        2.13830
O          5.19536        2.73766        0.04507
O          7.13354        3.32514        1.79247
C          5.25315        6.43148        3.90513
O          5.93171        6.25538        5.14492
O          7.09033        7.42027        7.32359
O          7.31315        5.01929        8.91038
O          5.89045        2.77791        7.92591
O          2.45721        3.75458        7.71818
H          3.59586        2.31198        6.87515
H          2.79297        3.37537        5.70433
H          5.15371        3.87925        5.71575
H          4.80889        4.37328        8.70023
H          7.17956        4.79061        6.85362
H          5.46060        6.80300        8.34601
H          4.59420        7.45215        6.16138
H          4.86054        6.69521        1.40019
H          6.93422        5.66481        2.86740
H          5.81880        2.21541        2.91859
H          3.95796        2.59621        1.60908
H          3.78913        4.81004        0.22890
H          3.42424        4.49473        2.98772
H          5.84167        3.35498       -0.31268
H          7.79896        3.09723        2.44980
H          4.18907        6.23256        4.02648
H          5.38487        7.45878        3.55477
H          6.94204        4.96037        0.78739
H          7.42088        7.29348        6.42563
H          7.95201        5.74024        8.87869
H          6.53886        2.77431        8.63874
H          2.27966        4.68846        7.56720
