40
-1161.23794233
O          7.09804       -1.96971        5.36260
C          7.62000       -0.75049        5.58284
O          8.66865       -0.37827        5.10371
C          6.70186        0.10023        6.46771
O          6.16000       -0.67980        7.48901
C          7.43883        1.23547        7.13710
C          7.79456        2.42843        6.24489
H          8.81340        2.33039        5.87643
O          7.79370        3.61780        7.01578
C          6.87459        2.55011        5.01781
H          6.70585        3.61133        4.83389
N          7.52919        2.00187        3.84723
C          7.09574        2.32305        2.60063
C          7.85932        1.69121        1.46326
O          6.15178        3.08644        2.41770
C          5.51455        1.87520        5.20172
H          5.05984        1.82835        4.21080
O          5.65864        0.50328        5.59077
C          4.53318        2.69055        6.03087
H          4.46828        3.65131        5.50809
O          5.02231        2.92022        7.35526
C          3.10608        2.13585        6.06830
H          2.67555        2.24657        5.07251
O          2.31655        2.98968        6.91471
C          2.92668        0.69826        6.51882
O          1.54955        0.35288        6.52692
H          7.70405       -2.43077        4.76426
H          5.78354       -1.47005        7.08270
H          8.32940        0.83878        7.61885
H          6.76562        1.58224        7.91652
H          6.89910        3.68212        7.37657
H          8.25748        1.31745        3.97186
H          8.61492        0.98544        1.80006
H          8.33717        2.48095        0.88786
H          7.15284        1.18637        0.80928
H          4.42637        3.57512        7.73762
H          2.45859        2.68638        7.81902
H          3.37991        0.56499        7.50796
H          3.42293        0.02030        5.83452
H          1.06881        1.12894        6.83177
