45
-1296.693135
C          6.82129       -5.03884        3.99297
C          5.81141       -4.81203        5.09040
C          6.05425       -5.63644        6.33877
C          4.97714       -5.26657        7.33430
C          3.59757       -5.49418        6.74166
C          3.46380       -4.78527        5.39768
O          4.52752       -5.15386        4.54547
O          3.42171       -3.40373        5.66247
C          2.63777       -2.63794        4.73892
C          3.18765       -2.64924        3.29897
O          3.77157       -1.39644        2.91877
C          4.67130       -0.88266        3.86644
C          3.92486       -0.46285        5.15010
C          2.59836       -1.22506        5.30387
O          1.53435       -0.57051        4.61751
O          4.72823       -0.57641        6.30103
O          5.64375       -1.81298        4.25852
C          2.12122       -2.95098        2.26546
O          0.92742       -2.21507        2.42217
O          2.58638       -5.08819        7.64677
O          5.17497       -6.05798        8.49470
O          7.34378       -5.32491        6.83296
O          6.56890       -4.18265        2.87484
H          6.81135       -6.08592        3.68263
H          7.81184       -4.79172        4.36270
H          5.81706       -3.75542        5.35510
H          5.97160       -6.70320        6.09963
H          5.09140       -4.20250        7.57372
H          3.46022       -6.56283        6.57850
H          2.55148       -5.09797        4.88445
H          1.61741       -3.03159        4.73341
H          3.94709       -3.42655        3.23935
H          5.12743       -0.02379        3.37487
H          3.66267        0.59307        5.04643
H          2.38983       -1.28802        6.37400
H          1.52878        0.35241        4.88878
H          5.36697       -1.27380        6.10728
H          6.02142       -2.27861        3.49532
H          1.86059       -4.00855        2.34087
H          2.56277       -2.78036        1.27951
H          1.14209       -1.38346        2.86447
H          2.56183       -4.12442        7.58550
H          4.42759       -5.88657        9.07879
H          7.37734       -5.66387        7.73490
H          5.77595       -4.52179        2.44854
