45
-1296.68543675
C          1.74037        2.88389        3.70042
C          0.77178        1.94024        4.39863
C         -0.36998        1.44113        3.51865
C         -1.47400        2.48896        3.31231
C         -1.54980        3.50812        4.45140
C         -1.01247        2.90555        5.73286
O          0.31801        2.51159        5.64702
O         -4.97872       -0.74073        6.78229
C         -4.21747        0.47242        6.71501
C         -2.97647        0.37299        7.58730
O         -3.27155        0.19486        8.97178
C         -4.52483        0.64992        9.44566
C         -5.02538        1.86874        8.67745
C         -5.15321        1.58325        7.17698
O         -4.85129        2.74103        6.39986
O         -6.24777        2.32299        9.22398
O         -5.50588       -0.35653        9.45721
C         -2.05348        1.57665        7.43134
O         -1.88116        1.80964        6.04092
O         -2.85070        4.03074        4.62276
O         -1.23104        3.13887        2.05964
O         -0.90696        0.22889        4.02784
O          1.18104        4.07732        3.19318
H          2.24080        2.30969        2.91230
H          2.49366        3.18452        4.42581
H          1.34956        1.05738        4.68003
H          0.03757        1.19824        2.53715
H         -2.41822        1.94364        3.26447
H         -0.89934        4.34413        4.20400
H         -1.06878        3.62813        6.54832
H         -3.92321        0.67383        5.68601
H         -2.42143       -0.52034        7.28597
H         -4.36838        0.91750       10.48750
H         -4.31313        2.68166        8.81132
H         -6.17343        1.25068        6.97491
H         -5.44654        3.44325        6.68589
H         -6.75861        1.52480        9.41303
H         -5.51713       -0.73734        8.56294
H         -1.09891        1.36478        7.91651
H         -2.49601        2.45990        7.89349
H         -4.40278       -1.46960        6.52749
H         -3.38312        3.37015        5.09196
H         -1.91180        3.81369        1.95492
H         -1.29691        0.46765        4.88167
H          0.51558        3.84234        2.52991
