30
-819.14818289
C          1.79082       -3.92184       -4.16432
C          0.73892       -3.90412       -3.07117
C         -0.14843       -2.66059       -3.11639
C          0.01965       -1.83178       -1.85887
C          1.51876       -1.63392       -1.67474
C          2.12127       -3.00272       -1.28773
O          1.36315       -4.08925       -1.79039
N          1.91276       -0.61710       -0.72006
C          1.20764       -0.17531        0.35716
O          0.00214       -0.34923        0.51425
C          2.03258        0.57471        1.37344
O         -0.69615       -0.63628       -2.07217
O         -1.49145       -3.07230       -3.27949
O          2.59858       -5.07895       -4.08445
H          1.29360       -3.92814       -5.13334
H          2.40432       -3.01464       -4.11190
H          0.09908       -4.77741       -3.17780
H          0.15234       -2.02388       -3.95923
H         -0.38321       -2.38457       -1.01001
H          1.92996       -1.33098       -2.64111
H          3.15323       -3.08562       -1.65386
H          2.89989       -0.42297       -0.68722
H          1.41027        1.32937        1.84270
H          2.35200       -0.13389        2.13655
H          2.91482        1.03997        0.93986
H         -0.77587       -0.25459       -1.18185
H         -2.02164       -2.27389       -3.16593
H          2.70372       -5.26258       -3.14451
O          2.09555       -3.10471        0.10573
H          2.10793       -4.04688        0.30805
