45
-1296.692755
C          3.70240        7.51867        5.80846
C          3.98245        6.06415        5.47745
C          5.46119        5.72137        5.47276
C          5.61023        4.25315        5.15977
C          4.95123        3.94017        3.82853
C          3.51260        4.44739        3.81791
O          3.44656        5.80863        4.17336
O          2.80668        3.61148        4.69945
C          1.38614        3.62837        4.54438
C          0.71453        4.79639        5.29396
O          0.02636        4.35892        6.47660
C          0.80263        3.53180        7.29712
C          1.08997        2.17946        6.60666
C          0.91790        2.28512        5.08435
O         -0.44415        2.14437        4.69722
O          2.34559        1.64406        6.95648
O          2.04887        4.11071        7.61933
C         -0.30557        5.52910        4.44846
O         -1.19935        4.68427        3.75358
O          5.02088        2.55416        3.54533
O          6.99765        3.95776        5.13510
O          5.99956        6.03581        6.75132
O          3.83313        7.76307        7.19718
H          2.67196        7.74540        5.54046
H          4.35499        8.16854        5.21742
H          3.47932        5.43902        6.21864
H          5.96048        6.30823        4.69363
H          5.11119        3.68099        5.95039
H          5.50091        4.44948        3.03740
H          3.07961        4.38758        2.81677
H          1.13695        3.68913        3.48148
H          1.48574        5.50727        5.58139
H          0.20627        3.38949        8.19684
H          0.33100        1.47371        6.95404
H          1.53274        1.50291        4.63446
H         -0.77191        1.31324        5.05376
H          2.88806        2.39619        7.22382
H          1.89632        4.87197        8.18959
H          0.23260        6.11308        3.70092
H         -0.84189        6.22152        5.10314
H         -1.32601        3.88485        4.27979
H          4.33896        2.14481        4.09434
H          7.08306        3.05149        4.81787
H          6.88176        5.64767        6.78144
H          4.71294        7.45244        7.44325
