45
-1296.68932195
C         -1.38054        5.06660        9.29352
C         -0.68065        3.83071        9.82136
C         -1.62009        2.82537       10.47771
C         -0.79234        1.74774       11.14130
C          0.17107        2.36762       12.12216
C          1.04840        3.38307       11.40520
O          0.25483        4.35308       10.77749
O          5.42164        3.34502        8.01604
C          4.24366        3.45171        8.83449
C          4.05510        2.17564        9.64806
O          3.64677        1.04725        8.87883
C          3.20874        1.25807        7.55249
C          2.34115        2.50483        7.43320
C          3.09305        3.76970        7.86597
O          2.22877        4.77021        8.36776
O          1.83392        2.61068        6.11788
O          4.25439        1.27525        6.61022
C          3.14231        2.34645       10.84609
O          1.86414        2.79720       10.40945
O          1.00453        1.40036       12.72900
O         -1.59461        0.83726       11.87808
O         -2.44528        2.15879        9.54057
O         -2.40515        4.63248        8.40027
H         -0.64777        5.69269        8.78408
H         -1.80246        5.61763       10.13709
H         -0.15931        3.33373        8.99977
H         -2.21972        3.33702       11.24101
H         -0.22718        1.22021       10.36654
H         -0.40326        2.91266       12.87924
H          1.67456        3.92006       12.12204
H          4.34793        4.29728        9.51842
H          5.03290        1.91695       10.07525
H          2.61468        0.38158        7.30801
H          1.48596        2.37168        8.09136
H          3.55735        4.20420        6.98158
H          1.83918        4.41483        9.17800
H          2.57483        2.39698        5.53719
H          4.86636        1.97800        6.88435
H          3.58178        3.08362       11.52780
H          3.04784        1.39632       11.36786
H          6.15499        3.07576        8.57927
H          0.42416        0.67170       12.97930
H         -2.25233        0.49406       11.26276
H         -2.83139        2.83924        8.97259
H         -2.75233        5.39722        7.93581
