24
-686.52381946
C          3.85390       -2.85710        0.53453
C          4.46486       -3.76264       -0.51713
C          4.11006       -3.34605       -1.94561
C          2.61898       -3.10006       -2.13904
C          2.27984       -2.84741       -3.60539
C          0.88293       -2.27353       -3.74088
O          0.51123       -1.30040       -3.12416
O          2.30155       -4.05839       -4.34248
O          1.83950       -4.20848       -1.67544
O          4.58042       -4.36478       -2.83622
O          4.08079       -5.11537       -0.29645
O          4.21989       -1.52321        0.20151
H          2.76788       -2.98655        0.53880
H          4.23826       -3.15104        1.51231
H          5.55018       -3.74129       -0.42285
H          4.63800       -2.42510       -2.19082
H          2.32608       -2.22104       -1.56597
H          2.97865       -2.10962       -4.01411
H          0.23148       -2.80464       -4.45497
H          3.19749       -4.41032       -4.21550
H          1.71545       -4.76840       -2.45613
H          4.58830       -5.17249       -2.30099
H          3.12727       -5.13599       -0.47303
H          3.88541       -0.93881        0.88603
