45
-1296.695749
C         11.83184       -4.34277        3.41559
C         11.10997       -3.06829        3.78180
C         11.92221       -2.09876        4.62186
C         11.05963       -0.88454        4.89031
C          9.77308       -1.28796        5.58469
C          9.07390       -2.39018        4.79869
O          9.93955       -3.45815        4.52438
O          8.58809       -1.79030        3.62134
C          7.30007       -2.15961        3.14921
C          7.35567       -3.41961        2.27952
O          6.15322       -3.59627        1.52466
C          5.76495       -2.51812        0.71718
C          5.58283       -1.26668        1.56718
C          6.85252       -0.96808        2.33487
O          6.68072        0.12478        3.21888
O          5.20762       -0.14912        0.78143
O          6.62293       -2.27274       -0.37764
C          7.50922       -4.69749        3.08434
O          8.30586       -5.60676        2.32769
O          8.91840       -0.17749        5.78167
O         11.81488        0.01322        5.68948
O         13.08551       -1.74455        3.89740
O         11.19417       -5.03558        2.36169
H         11.92666       -4.96058        4.31454
H         12.82812       -4.08674        3.06470
H         10.80936       -2.56816        2.85762
H         12.18268       -2.57209        5.57602
H         10.81776       -0.42287        3.92620
H         10.02061       -1.67442        6.57358
H          8.24648       -2.80251        5.37968
H          6.61073       -2.29952        3.98964
H          8.22738       -3.33868        1.61876
H          4.81821       -2.80914        0.27088
H          4.77227       -1.44230        2.27437
H          7.65667       -0.74157        1.62180
H          6.23306        0.81306        2.71155
H          5.71227       -0.22108       -0.03904
H          7.53008       -2.21106       -0.06099
H          6.50813       -5.09462        3.25526
H          7.98969       -4.50035        4.03842
H          8.10502       -6.50113        2.61562
H          8.46719       -0.02128        4.93828
H         11.21872        0.72892        5.93759
H         13.44565       -0.96428        4.33429
H         10.27181       -5.20803        2.59562
