45
-1296.691422
C         -3.64638       -4.06519        1.34199
C         -3.61429       -2.63466        0.85468
C         -4.42376       -1.69378        1.75717
C         -5.12716       -0.60896        0.94041
C         -4.25406       -0.20662       -0.23336
C         -4.03222       -1.42582       -1.14615
O         -4.16432       -2.66453       -0.47364
O         -2.74151       -1.30539       -1.68650
C         -2.56892       -1.73752       -3.03445
C         -3.08025       -0.70283       -4.03249
O         -2.75300       -1.13511       -5.35300
C         -3.32165       -2.36357       -5.71349
C         -2.88907       -3.46870       -4.75665
C         -3.20949       -3.08148       -3.32920
O         -2.73129       -4.12263       -2.49792
O         -3.59475       -4.64046       -5.13140
O         -4.72358       -2.24190       -5.72112
C         -2.41539        0.65355       -3.89513
O         -2.91071        1.29978       -2.72333
O         -3.04053        0.28556        0.30736
O         -6.37130       -1.11884        0.47084
O         -3.57780       -1.13784        2.74965
O         -4.96248       -4.58643        1.35199
H         -3.27915       -4.09763        2.36610
H         -2.98476       -4.67611        0.71942
H         -2.58098       -2.28130        0.81002
H         -5.19204       -2.26046        2.27866
H         -5.26992        0.24703        1.60229
H         -4.73882        0.56456       -0.83714
H         -4.79624       -1.44253       -1.92017
H         -1.48797       -1.83110       -3.15706
H         -4.16179       -0.57643       -3.93455
H         -2.94567       -2.56353       -6.71748
H         -1.80946       -3.61521       -4.85186
H         -4.29713       -2.99961       -3.24472
H         -3.09374       -3.92928       -1.61979
H         -3.48415       -5.26308       -4.40262
H         -5.06280       -3.14611       -5.67908
H         -2.65783        1.22313       -4.79291
H         -1.33093        0.52680       -3.84538
H         -2.72154        2.23766       -2.80845
H         -2.44196        0.36516       -0.44866
H         -6.94918       -0.37116        0.29640
H         -2.97625       -0.54812        2.27683
H         -5.36118       -4.34481        0.50896
