24
-686.53118620
C         -1.23696        0.00432        2.46488
C          0.19758       -0.49529        2.38942
C          1.28425        0.55510        2.16547
C          1.42807        0.97853        0.69979
C          1.51235       -0.26118       -0.19938
C          0.50130       -1.35381        0.13134
O          0.36293       -1.61494        1.49831
O         -0.73926       -1.02512       -0.48909
O          2.77497       -0.91593       -0.02663
O          0.45694        1.89646        0.26439
O          2.52304        0.06384        2.65881
O         -1.71529        0.71688        1.33199
H         -1.30695        0.68899        3.30917
H         -1.87944       -0.85489        2.67161
H          0.40560       -0.92651        3.36974
H          1.04574        1.44011        2.75575
H          2.39033        1.49059        0.62466
H          1.35950        0.04114       -1.23601
H          0.87446       -2.28794       -0.28494
H         -1.25715       -1.83684       -0.51668
H          3.46162       -0.28000       -0.25216
H         -0.40263        1.63775        0.64606
H          2.79494       -0.63773        2.05241
H         -1.63465        0.10886        0.57600
