40
-1161.24994498
O          7.08464        2.41836        5.53504
C          6.17424        1.94109        6.39110
O          5.02265        1.69797        6.10845
C          6.71818        1.80945        7.81519
O          5.78487        1.10377        8.56711
C          8.07347        1.14309        7.92995
C          8.71533        1.48764        9.26532
H          9.69880        1.02494        9.31308
O          7.97977        0.97837       10.36975
C          8.90955        3.01823        9.40320
H          8.59269        3.25115       10.41817
N         10.30058        3.43194        9.31112
C         11.06730        3.21470        8.20808
C         12.37231        3.97213        8.18186
O         10.72994        2.46257        7.29855
C          8.03123        3.78201        8.40921
H          8.52164        3.79749        7.43346
O          6.74332        3.15401        8.31087
C          7.70788        5.21104        8.83977
H          7.22003        5.70846        7.99730
O          8.93821        5.85302        9.14651
C          6.70300        5.26267       10.00743
H          6.85979        4.42439       10.69381
O          5.37293        5.24386        9.50199
C          6.83601        6.55096       10.78818
O          6.88447        7.68437        9.92224
H          6.63648        2.53191        4.68333
H          4.92966        1.20557        8.12279
H          8.73726        1.48130        7.13979
H          7.92792        0.06800        7.84396
H          7.04316        0.99416       10.13936
H         10.53869        4.24543        9.85400
H         12.69731        4.28326        9.17145
H         12.24115        4.85734        7.56084
H         13.13086        3.34520        7.72367
H          8.71048        6.78826        9.23891
H          5.31119        4.44500        8.96390
H          7.76320        6.55963       11.35391
H          5.99951        6.62441       11.48441
H          6.06873        7.66709        9.41015
