45
-1296.697930
C          6.79499        1.85533        1.95716
C          6.56863        2.47692        0.60293
C          7.82075        2.69943       -0.22214
C          7.36783        3.25470       -1.55498
C          6.56530        4.52725       -1.35701
C          5.44351        4.32632       -0.34211
O          5.93628        3.74643        0.84129
O          4.45729        3.52732       -0.94373
C          3.10967        3.79074       -0.52217
C          2.92399        3.91853        0.98483
O          2.96100        2.67984        1.69972
C          2.63536        1.47619        1.02763
C          1.67716        1.69525       -0.12207
C          2.25138        2.68336       -1.13697
O          1.19501        3.32310       -1.85932
O          1.34758        0.47167       -0.75608
O          3.76252        0.84162        0.48416
C          1.68018        4.74092        1.32142
O          0.45608        4.28497        0.78404
O          6.06471        5.01306       -2.59055
O          8.52455        3.49493       -2.34040
O          8.47934        1.45677       -0.38089
O          5.55664        1.46121        2.54656
H          7.32603        2.55890        2.60260
H          7.39222        0.95497        1.84692
H          5.88854        1.83976        0.03483
H          8.47000        3.42946        0.27468
H          6.73296        2.49841       -2.03190
H          7.23374        5.29589       -0.96919
H          5.03265        5.29695       -0.05638
H          2.80015        4.74157       -0.97008
H          3.75583        4.49370        1.39369
H          2.17650        0.85003        1.79394
H          0.75471        2.10270        0.28066
H          2.89742        2.13253       -1.82207
H          0.62473        2.62111       -2.19528
H          2.18141       -0.00409       -0.85883
H          4.40604        0.73905        1.20928
H          1.88622        5.77311        1.01494
H          1.56062        4.72851        2.40261
H          0.51528        4.28275       -0.18160
H          5.29714        4.46217       -2.79113
H          8.22892        3.93409       -3.14579
H          9.11068        1.57501       -1.09979
H          4.97726        2.23655        2.55260
