24
-686.52567059
C          0.75399       -0.74815        4.04116
C          1.27878       -0.67217        2.62534
C          1.83835        0.70858        2.26133
C          1.49387        1.04775        0.80474
C          1.61549       -0.20034       -0.06309
C          0.66550       -1.29087        0.45016
O          0.18404       -0.99814        1.75758
O         -0.43345       -1.34728       -0.39954
O          2.94449       -0.73398        0.01436
O          0.20934        1.62470        0.66859
O          3.23171        0.76153        2.52599
O         -0.34384        0.12329        4.24285
H          1.53988       -0.42976        4.72323
H          0.48490       -1.78132        4.27421
H          2.07396       -1.41660        2.49755
H          1.37458        1.46861        2.88697
H          2.20590        1.79998        0.46521
H          1.33822        0.02130       -1.09291
H          1.20887       -2.24191        0.48982
H         -1.01462       -2.04299       -0.07512
H          3.49734       -0.21953       -0.58132
H         -0.42218        0.96298        0.97330
H          3.63503        0.12807        1.92062
H         -1.02636       -0.14644        3.62099
