45
-1296.69591449
C          7.54802        6.85373       11.36599
C          6.85518        7.28631       10.08946
C          7.00001        6.25470        8.97494
C          6.53336        6.82571        7.65162
C          7.23849        8.13420        7.38865
C          6.95699        9.09237        8.53322
O          7.47730        8.52303        9.72355
O          2.60286       11.88087        9.22696
C          3.43999       11.57804        8.12682
C          4.87864       11.64321        8.63709
O          5.81598       11.84837        7.58192
C          5.32729       11.34015        6.33795
C          4.16181       12.18248        5.83186
C          3.29512       12.59280        7.01324
O          1.90739       12.66673        6.70229
O          4.58509       13.35309        5.16350
O          6.35470       11.39047        5.41089
C          5.27404       10.43462        9.47151
O          5.58019        9.31486        8.63132
O          6.83763        8.70170        6.15084
O          6.84439        5.97133        6.56044
O          6.29758        5.05232        9.27323
O          8.94387        6.71454       11.18110
H          7.17060        5.88042       11.66971
H          7.32291        7.58087       12.15005
H          5.78975        7.45249       10.28938
H          8.04748        5.96687        8.89162
H          5.45398        7.01129        7.69494
H          8.31720        7.95369        7.38508
H          7.49211       10.03323        8.40234
H          3.20097       10.57974        7.74184
H          4.92200       12.52566        9.27924
H          5.00127       10.31056        6.48734
H          3.56190       11.54971        5.16793
H          3.65814       13.55827        7.37567
H          1.78043       13.41357        6.10970
H          5.37502       13.10718        4.66666
H          6.84437       10.56193        5.51610
H          4.44762       10.15586       10.12583
H          6.14015       10.66839       10.09093
H          1.74850       12.11550        8.84452
H          6.84286        7.97590        5.51404
H          6.53658        5.08919        6.79660
H          5.37396        5.28475        9.42186
H          9.25620        7.56443       10.85384
