24
-686.52997337
C         -1.46059       -0.00020        2.18701
C         -0.00649       -0.44415        2.15819
C          1.02888        0.68402        2.04493
C          1.40188        1.03170        0.60165
C          1.70508       -0.23696       -0.18232
C          0.54108       -1.22222       -0.08944
O          0.20585       -1.52695        1.23554
O         -0.53169       -0.74137       -0.86821
O          2.89423       -0.78493        0.37645
O          0.35771        1.78187       -0.02042
O          2.19583        0.37524        2.78602
O         -1.93449        0.61006        0.99232
H         -1.59077        0.67137        3.03998
H         -2.08408       -0.87738        2.34314
H          0.17877       -0.89363        3.13475
H          0.60577        1.57857        2.50539
H          2.30070        1.64752        0.63976
H          1.85204        0.01105       -1.23735
H          0.84761       -2.18126       -0.51485
H         -1.21751       -0.40433       -0.25350
H          2.97901       -1.69470        0.07321
H          0.05603        1.26736       -0.78173
H          2.70321       -0.24292        2.24270
H         -1.33627        1.34973        0.79418
