24
-686.52758989
C         -2.60463        0.55684        0.43475
C         -1.17261        0.44995        0.92564
C         -0.24257        1.53194        0.39217
C          1.17343        1.09968        0.69761
C          1.52894       -0.12949       -0.11457
C          0.28844       -1.01122       -0.32109
O         -0.66742       -0.87240        0.70209
O         -0.23500       -0.69184       -1.58652
O          2.56919       -0.78415        0.60110
O          2.02039        2.20791        0.42033
O         -0.58249        2.73063        1.06590
O         -2.74596        0.37225       -0.97298
H         -3.01243        1.51939        0.74750
H         -3.18514       -0.23764        0.89717
H         -1.19559        0.58712        2.00954
H         -0.34431        1.65768       -0.68944
H          1.23145        0.83234        1.75742
H          1.86780        0.19006       -1.10172
H          0.57340       -2.06424       -0.26770
H         -1.20208       -0.72124       -1.50810
H          2.94656       -1.45984        0.03072
H          2.90263        1.97861        0.72783
H          0.17912        3.31326        0.95895
H         -2.49493        1.19352       -1.40501
