30
-819.15583759
C         -0.44475       -5.07982        0.34986
C         -0.08320       -3.63337        0.06783
C         -0.36417       -3.24016       -1.37974
C          0.31614       -1.92653       -1.69422
C          1.82739       -1.99738       -1.39342
C          2.16324       -3.29950       -0.68318
O          1.29200       -3.41908        0.44309
N          2.26536       -0.89494       -0.55311
C          2.16830        0.37222       -1.06232
O          1.87428        0.56838       -2.23709
C          2.48087        1.49451       -0.10915
O          0.04087       -1.62620       -3.04849
O         -1.77150       -3.12009       -1.48952
O          0.43543       -5.97277       -0.31552
H         -0.43137       -5.25079        1.42820
H         -1.44712       -5.27771       -0.02391
H         -0.69224       -2.98110        0.69772
H          0.00025       -4.01198       -2.06369
H         -0.12804       -1.16920       -1.03791
H          2.37161       -1.94224       -2.33526
H          2.01750       -4.14610       -1.35244
H          2.11304       -1.00147        0.44034
H          1.66715        2.21436       -0.13812
H          2.63607        1.15287        0.91084
H          3.38107        1.99749       -0.45566
H          0.47488       -0.77896       -3.22197
H         -1.93815       -2.75308       -2.36543
H          1.28422       -5.89769        0.13134
O          3.47308       -3.36830       -0.23949
H          3.74575       -2.48088        0.01860
