30
-819.16264176
C          0.14037       -3.54295       -5.21935
C          0.42276       -3.07653       -3.80996
C         -0.57675       -2.04194       -3.32436
C         -0.17314       -1.55760       -1.94893
C          1.26588       -1.05713       -1.97682
C          2.17497       -2.14520       -2.53794
O          1.72519       -2.48756       -3.83909
N          1.69367       -0.55704       -0.68233
C          1.86750       -1.36628        0.40662
O          1.48388       -2.52842        0.43414
C          2.56908       -0.71779        1.57539
O         -1.08494       -0.52178       -1.60332
O         -1.85756       -2.64266       -3.29764
O          1.10083       -4.48923       -5.65112
H         -0.83070       -4.02807       -5.25114
H          0.11909       -2.66945       -5.87854
H          0.41768       -3.93795       -3.13188
H         -0.55899       -1.18785       -4.01238
H         -0.25587       -2.39050       -1.24835
H          1.32227       -0.22004       -2.67383
H          2.15439       -3.03789       -1.90528
H          2.20419        0.30909       -0.68215
H          3.61485       -1.02118        1.55853
H          2.51876        0.36804        1.54914
H          2.12617       -1.08597        2.49546
H         -0.90826       -0.27791       -0.68926
H         -2.42764       -2.03484       -2.81319
H          1.95813       -4.07725       -5.50496
O          3.45403       -1.60920       -2.63698
H          4.05006       -2.31649       -2.90147
