24
-686.52347126
C          0.74783        1.48604       -2.79067
C          0.21272        1.41746       -1.37339
C          1.19213        1.95269       -0.32063
C          1.42517        0.91497        0.74835
C          1.84402       -0.36598        0.05917
C          0.65164       -0.90947       -0.74904
O         -0.27639        0.10521       -1.07512
O         -0.07095       -1.83311        0.03924
O          2.30832       -1.31986        0.99577
O          2.44140        1.39812        1.60810
O          0.65288        3.15796        0.19819
O          1.91681        0.69134       -2.97075
H          0.92877        2.53133       -3.05114
H         -0.00733        1.08723       -3.46514
H         -0.67609        2.04580       -1.31830
H          2.16844        2.15326       -0.77716
H          0.49590        0.75728        1.30690
H          2.67236       -0.14861       -0.61356
H          0.98802       -1.44042       -1.63801
H         -0.83124       -1.34066        0.37104
H          1.53677       -1.87153        1.19104
H          2.77210        0.62434        2.08138
H          1.24139        3.43247        0.91088
H          2.68623        1.25093       -2.84645
