45
-1296.697961
C          7.45374        5.80845        2.34170
C          6.40308        5.38298        1.32578
C          6.26465        3.87692        1.10747
C          7.34976        3.31012        0.19040
C          7.49594        4.17552       -1.05997
C          7.71140        5.61732       -0.63567
O          6.59161        6.07335        0.07469
O          7.82967        6.35587       -1.83676
C          7.34600        7.68558       -1.82901
C          7.10435        8.05563       -3.28501
O          6.43807        9.32548       -3.33003
C          7.21625       10.36879       -2.79503
C          7.65718       10.07529       -1.36636
C          8.30679        8.70215       -1.25313
O          8.57958        8.41444        0.11144
O          8.51653       11.08511       -0.86766
O          8.40224       10.58771       -3.52972
C          6.24435        7.04103       -4.00951
O          5.17397        6.52727       -3.23010
O          6.30611        4.04934       -1.82273
O          8.57214        3.28025        0.91980
O          4.98585        3.55900        0.58624
O          7.45198        7.21295        2.50349
H          8.44323        5.43303        2.07782
H          7.18691        5.37469        3.30487
H          5.43765        5.74608        1.67370
H          6.34643        3.37738        2.07358
H          7.03533        2.30623       -0.10269
H          8.36412        3.84783       -1.64271
H          8.62345        5.72390       -0.04410
H          6.40022        7.73507       -1.29158
H          8.05818        8.12997       -3.81517
H          6.57451       11.24855       -2.82489
H          6.77379       10.07806       -0.72791
H          9.23806        8.68143       -1.82949
H          9.03745        9.18913        0.46305
H          9.14132       11.27414       -1.57871
H          8.16249       10.96802       -4.38034
H          6.85871        6.18175       -4.26291
H          5.88065        7.49483       -4.93371
H          4.59083        7.25538       -2.99590
H          6.10556        4.91059       -2.22450
H          9.20920        2.77092        0.41048
H          5.03146        3.77063       -0.35787
H          7.64868        7.59117        1.63475
