40
-1161.24772795
O          5.24773        6.41651        8.59460
C          5.96472        5.60612        7.79566
O          6.24731        4.46484        8.08280
C          6.31251        6.28083        6.46538
O          6.45804        7.66030        6.61177
C          7.61922        5.76385        5.89319
C          7.58074        4.36872        5.25684
H          7.79811        3.62097        6.01673
O          8.61726        4.25783        4.29862
C          6.20183        4.04583        4.66096
H          6.34385        3.54461        3.70550
N          5.48252        3.12682        5.52033
C          4.44610        2.39959        5.02946
C          3.74495        1.51110        6.02730
O          4.11317        2.45248        3.84868
C          5.34973        5.29027        4.43844
H          4.34629        4.95995        4.16987
O          5.15909        5.99842        5.67751
C          5.77653        6.26588        3.34414
H          6.75235        6.71060        3.55343
O          4.78909        7.28160        3.24360
C          5.87653        5.59006        1.98767
H          5.05757        4.86998        1.87018
O          7.12794        4.90634        1.94789
C          5.84181        6.59221        0.84660
O          6.21994        5.93401       -0.36529
H          5.01014        5.89867        9.37792
H          5.72460        7.97637        7.15304
H          8.37363        5.79838        6.67665
H          7.92911        6.47862        5.13497
H          8.26320        4.55275        3.44583
H          5.65918        3.15441        6.51177
H          3.84440        0.47891        5.69958
H          2.68613        1.75802        6.02748
H          4.14230        1.60800        7.03481
H          4.61981        7.57006        4.14863
H          7.32035        4.78266        1.00755
H          6.58946        7.36444        1.01583
H          4.86348        7.05944        0.76931
H          5.44846        5.46972       -0.70182
