45
-1296.697037
C          8.18937        0.61843        7.09439
C          6.71559        0.83592        6.72507
C          6.50079        1.31219        5.29854
C          7.10291        2.70486        5.08589
C          7.07922        3.55824        6.36205
C          5.99708        3.08897        7.31667
O          6.13922        1.74501        7.70029
O          4.75683        3.32033        6.65864
C          3.67388        3.75506        7.47963
C          2.52577        2.75866        7.43848
O          1.46752        3.25209        8.26944
C          0.95671        4.49715        7.87392
C          2.04123        5.56593        7.82088
C          3.19920        5.08916        6.96320
O          4.28918        5.99812        7.01813
O          1.54279        6.80750        7.35640
O          0.38286        4.47108        6.58196
C          2.91989        1.38202        7.94769
O          3.68628        1.42230        9.13507
O          6.96927        4.93923        6.09924
O          8.44848        2.50053        4.64298
O          5.13501        1.25166        4.92842
O          8.91459       -0.05610        6.08730
H          8.23144        0.00213        7.99003
H          8.64786        1.57682        7.33848
H          6.16552       -0.09671        6.84412
H          7.01905        0.62179        4.63717
H          6.52075        3.21104        4.31447
H          8.03440        3.41527        6.86660
H          6.01803        3.67438        8.23602
H          4.01043        3.85332        8.51373
H          2.16501        2.65988        6.40895
H          0.20802        4.74799        8.62446
H          2.40745        5.73526        8.83308
H          2.86066        4.96749        5.92868
H          3.91958        6.87913        6.88091
H          0.97327        6.59798        6.60559
H         -0.42103        3.94378        6.62276
H          3.45396        0.85926        7.15203
H          2.00075        0.83578        8.15621
H          4.61227        1.39162        8.85827
H          6.03318        5.18795        6.14512
H          8.84892        3.36721        4.51480
H          4.68922        1.94768        5.43248
H          9.10492        0.60321        5.40858
