45
-1296.692267
C         -1.52627        2.28560        3.09710
C         -2.53099        1.15533        3.17389
C         -2.35551        0.13666        2.05944
C         -3.48728       -0.86225        2.10681
C         -4.81123       -0.13115        2.00603
C         -4.90279        0.89338        3.12661
O         -3.81883        1.78765        3.08657
O         -4.94067        0.17153        4.33851
C         -5.84089        0.61372        5.34017
C         -5.02710        1.06419        6.55779
O         -5.78959        1.00622        7.77439
C         -7.18728        1.09056        7.56132
C         -7.73126       -0.11442        6.79314
C         -6.71332       -0.55386        5.74846
O         -7.32558       -1.07708        4.57631
O         -7.99250       -1.22335        7.62533
O         -7.80892        1.10126        8.80937
C         -4.42258        2.44071        6.36946
O         -5.41992        3.44970        6.25361
O         -5.90325       -1.02695        2.01309
O         -3.31425       -1.76093        1.02158
O         -1.10070       -0.49010        2.26692
O         -1.67057        3.04141        1.90915
H         -0.52340        1.86704        3.09097
H         -1.64022        2.91909        3.98155
H         -2.43009        0.64195        4.13524
H         -2.37717        0.65468        1.09593
H         -3.44343       -1.40229        3.05829
H         -4.83989        0.40255        1.05464
H         -5.79886        1.50691        3.02554
H         -6.45281        1.43266        4.95147
H         -4.21916        0.33795        6.67220
H         -7.40932        2.00521        7.00279
H         -8.64080        0.20770        6.27423
H         -6.07441       -1.30920        6.21422
H         -7.84449       -1.84515        4.83849
H         -8.29239       -0.86668        8.47043
H         -7.32578        1.71491        9.37179
H         -3.85561        2.45145        5.44017
H         -3.74477        2.65265        7.19797
H         -5.68231        3.69377        7.14429
H         -6.17627       -1.15928        2.93575
H         -4.12455       -2.28152        0.97336
H         -1.07061       -1.23610        1.65762
H         -2.59057        3.32365        1.88201
