40
-1161.25250392
O         12.89816       -0.48907        5.12198
C         12.08439       -1.12899        4.26937
O         12.37362       -1.39709        3.12647
C         10.70720       -1.46069        4.86399
O         10.14132       -2.44670        4.08295
C         10.70301       -1.93677        6.30482
C         10.78858       -0.85102        7.36621
H         11.77076       -0.37906        7.35899
O         10.55422       -1.48730        8.60223
C          9.72782        0.19408        7.03460
H          8.77515       -0.33402        6.96059
N          9.54853        1.25470        8.01770
C         10.29658        1.55318        9.11376
C          9.74783        2.68541        9.94980
O         11.34282        0.98690        9.42376
C         10.07751        0.75763        5.65100
H         11.12271        1.08068        5.66901
O          9.90137       -0.27979        4.67752
C          9.29793        1.97353        5.13940
H          9.58134        2.08082        4.08956
O          9.77555        3.15056        5.77720
C          7.76823        1.93351        5.16242
H          7.46297        2.92721        4.82831
O          7.24219        1.75258        6.47900
C          7.13682        0.89932        4.23570
O          7.12261       -0.38927        4.83396
H         13.71539       -0.29729        4.63543
H         10.52219       -2.35055        3.19704
H         11.50781       -2.65605        6.44955
H          9.76052       -2.46825        6.44512
H         10.90036       -0.86098        9.25672
H          8.64194        1.69920        7.93509
H          8.82976        3.11256        9.55394
H         10.50895        3.45914       10.01860
H          9.56835        2.31120       10.95499
H          9.75067        2.98617        6.72568
H          6.92383        0.83682        6.48215
H          7.64553        0.89050        3.27040
H          6.09482        1.16878        4.07632
H          8.01915       -0.74111        4.72466
