30
-819.14636100
C         -0.37525       -5.12680        0.26133
C          0.03246       -3.72777       -0.17733
C         -0.61106       -3.31439       -1.48941
C         -0.17684       -1.91237       -1.86479
C          1.31980       -1.67476       -1.54171
C          2.04469       -2.99642       -1.33278
O          1.46767       -3.73769       -0.28195
N          1.51717       -0.90519       -0.33487
C          1.36853        0.44786       -0.19382
O          1.46250        0.98994        0.89668
C          1.09968        1.22168       -1.46370
O         -0.49712       -1.76309       -3.24089
O         -2.02442       -3.38155       -1.31658
O         -1.68136       -5.16872        0.79288
H         -0.25224       -5.81017       -0.58640
H          0.30333       -5.44408        1.05022
H         -0.26703       -3.02130        0.60423
H         -0.29195       -3.99684       -2.27735
H         -0.75952       -1.21953       -1.25064
H          1.78198       -1.17278       -2.39058
H          3.06874       -2.81510       -1.00313
H          1.65062       -1.40865        0.53088
H          0.14429        0.92943       -1.89915
H          1.06246        2.27529       -1.21123
H          1.87872        1.05229       -2.20541
H         -0.42742       -0.83288       -3.47486
H         -2.41633       -3.16052       -2.16818
H         -2.25373       -4.75686        0.13520
O          2.02636       -3.68110       -2.55756
H          2.50260       -4.50775       -2.42578
