45
-1296.690724
C          8.97359        0.75582       -2.62427
C          7.70487        0.76826       -1.78902
C          6.61292       -0.11863       -2.36720
C          5.35957        0.01617       -1.53823
C          4.93941        1.46742       -1.49867
C          6.09993        2.31814       -0.98606
O          7.24438        2.12395       -1.77575
O          6.36007        1.99091        0.36440
C          6.36470        3.08935        1.25846
C          7.28233        2.74744        2.44022
O          6.58307        2.62319        3.68903
C          5.76777        3.70960        4.09119
C          5.12898        4.42170        2.89474
C          4.97761        3.41391        1.76988
O          4.20130        3.97546        0.71646
O          3.88792        5.01488        3.22189
O          4.70476        3.17651        4.83130
C          8.43200        3.72824        2.58026
O          9.27930        3.37973        3.65408
O          3.77898        1.55272       -0.69638
O          4.36829       -0.80463       -2.14142
O          7.07817       -1.46291       -2.37683
O          9.68418       -0.45910       -2.49620
H          9.62731        1.54980       -2.26966
H          8.71565        0.97046       -3.66676
H          7.94376        0.43732       -0.77519
H          6.39725        0.21590       -3.38838
H          5.56574       -0.32006       -0.51784
H          4.72778        1.79740       -2.52139
H          5.86248        3.37813       -1.07482
H          6.74773        3.97769        0.74087
H          7.68364        1.75086        2.27039
H          6.35023        4.40105        4.70762
H          5.77307        5.23347        2.55417
H          4.50852        2.49918        2.14140
H          3.51389        4.49594        1.15703
H          3.49049        4.44942        3.89769
H          5.07162        2.63666        5.53830
H          8.04342        4.74685        2.70113
H          9.02713        3.70700        1.66801
H          8.70479        3.05645        4.35631
H          3.71397        2.45369       -0.34328
H          3.54986       -0.64942       -1.65730
H          6.31237       -2.01272       -2.58002
H          9.04410       -1.16790       -2.63240
