30
-819.14777216
C          0.51358       -5.50054       -2.13617
C         -0.00226       -4.62898       -1.01008
C         -0.57727       -3.29503       -1.50574
C          0.09883       -2.14378       -0.79177
C          1.60768       -2.32387       -0.95068
C          2.07076       -3.62589       -0.22468
O          0.93996       -4.45720        0.03956
N          2.35807       -1.14464       -0.56279
C          2.18814       -0.50184        0.61922
O          1.55390       -0.99108        1.55301
C          2.81437        0.86495        0.71361
O         -0.37231       -0.90025       -1.30203
O         -1.97659       -3.30194       -1.27315
O          1.47453       -4.76734       -2.89907
H          0.96290       -6.39658       -1.70463
H         -0.33600       -5.78936       -2.76145
H         -0.82836       -5.16415       -0.54283
H         -0.37805       -3.18272       -2.57947
H         -0.18133       -2.14792        0.25758
H          1.80630       -2.46939       -2.01448
H          2.77982       -4.16159       -0.85405
H          2.86838       -0.65863       -1.27743
H          3.24307        0.98517        1.70363
H          3.57902        1.03311       -0.04099
H          2.02756        1.60753        0.59110
H         -0.10374       -0.84588       -2.22616
H         -2.27191       -2.39109       -1.38839
H          1.82578       -5.35309       -3.57442
O          2.70125       -3.40244        0.97755
H          2.17223       -2.74823        1.46530
