24
-686.52394549
C          1.34944        5.55876       -0.25170
C          0.91790        4.43548        0.67556
C          2.09465        3.86125        1.43804
C          1.74034        2.90210        2.57679
C          0.99481        1.61068        2.21048
C          1.73797        0.82501        1.14717
O          2.94988        0.70576        1.13219
O         -0.36061        1.78930        1.88957
O          2.95277        2.58360        3.25787
O          2.77863        4.96945        2.00320
O          0.35849        3.39186       -0.12492
O          0.28183        5.85798       -1.15594
H          1.66275        6.43076        0.31576
H          2.17996        5.21958       -0.86786
H          0.16677        4.80917        1.38085
H          2.73570        3.34155        0.71637
H          1.11904        3.44531        3.28975
H          1.02326        0.99537        3.11378
H          1.10336        0.34719        0.38271
H         -0.38021        2.30781        1.06717
H          3.40117        1.93315        2.69584
H          3.36741        4.58521        2.66644
H         -0.10319        3.84844       -0.84396
H         -0.31853        6.46586       -0.71606
