45
-1296.690549
C         -6.77557      -11.12500       -4.85644
C         -6.70509       -9.99650       -5.84672
C         -6.75617      -10.53982       -7.28525
C         -5.85596       -9.69154       -8.19173
C         -5.97837       -8.23081       -7.78455
C         -5.42396       -8.06988       -6.35548
O         -5.47895       -9.28635       -5.62535
O         -6.17741       -7.04932       -5.77888
C         -5.66905       -6.42698       -4.59979
C         -5.82448       -7.31403       -3.35616
O         -6.11889       -6.47625       -2.22406
C         -7.40702       -5.91233       -2.27345
C         -7.75755       -5.37511       -3.67445
C         -6.45096       -5.12112       -4.41977
O         -5.67318       -4.14514       -3.74598
O         -8.52490       -6.29006       -4.43054
O         -8.40305       -6.84306       -1.92651
C         -4.57233       -8.08825       -2.99490
O         -4.83934       -9.17567       -2.13693
O         -7.35830       -7.89581       -7.85295
O         -4.50099      -10.11188       -8.15368
O         -8.09218      -10.61460       -7.74091
O         -6.92940      -10.59647       -3.53797
H         -5.86235      -11.72194       -4.92752
H         -7.63073      -11.74603       -5.12895
H         -7.54713       -9.31943       -5.68739
H         -6.36489      -11.55843       -7.31486
H         -6.19650       -9.81882       -9.21728
H         -5.39588       -7.59415       -8.45306
H         -4.36415       -7.80679       -6.37115
H         -4.61768       -6.16073       -4.76008
H         -6.65305       -8.00294       -3.52439
H         -7.37356       -5.09776       -1.55062
H         -8.28946       -4.42811       -3.55793
H         -6.67083       -4.72124       -5.40740
H         -5.37095       -4.55935       -2.92877
H         -9.04620       -6.79529       -3.79392
H         -8.13762       -7.25053       -1.09518
H         -3.89786       -7.41641       -2.46328
H         -4.07823       -8.41814       -3.91048
H         -5.46205       -9.74368       -2.61432
H         -7.50549       -7.21127       -7.18290
H         -4.25654      -10.15411       -7.22190
H         -8.36682       -9.69486       -7.86007
H         -7.24179      -11.30467       -2.96780
