45
-1296.68703901
C         -1.45036        1.81808        3.94095
C         -0.15348        2.23397        4.62546
C         -0.30049        2.79003        6.04158
C         -0.82537        4.23159        6.05574
C         -0.05579        5.10265        5.07059
C         -0.02056        4.40840        3.72162
O          0.59408        3.15394        3.81159
O         -0.40731        6.00483       -1.31582
C         -0.31755        5.93208        0.09462
C          0.20708        4.56047        0.55881
O         -0.82895        3.67286        1.01916
C         -2.05727        3.79692        0.36340
C         -2.68733        5.15670        0.67263
C         -1.64808        6.29310        0.75707
O         -1.47026        6.68894        2.10580
O         -3.66405        5.34453       -0.34639
O         -1.86050        3.62828       -1.02863
C          1.23960        4.60831        1.66475
O          0.77989        5.22484        2.87755
O          1.25836        5.27189        5.58051
O         -2.18911        4.31853        5.66011
O          0.92830        2.71872        6.74100
O         -1.20347        1.28017        2.65643
H         -2.16330        2.64249        3.90009
H         -1.90290        1.02302        4.53346
H          0.49057        1.35842        4.68396
H         -1.00368        2.15882        6.59103
H         -0.67209        4.63499        7.05910
H         -0.57199        6.06061        4.96790
H         -1.02997        4.32865        3.31813
H          0.40632        6.69634        0.38188
H          0.69781        4.10713       -0.30738
H         -2.67112        2.98426        0.75230
H         -3.15634        5.09544        1.65701
H         -2.04578        7.14788        0.20589
H         -0.60898        6.36041        2.40704
H         -4.09624        6.19144       -0.20462
H         -2.67374        3.95924       -1.43770
H          2.07835        5.21694        1.33218
H          1.59069        3.60302        1.88358
H         -0.87201        5.20106       -1.58926
H          1.80014        5.54713        4.83025
H         -2.72276        3.90817        6.34661
H          1.47270        3.43968        6.39420
H         -0.81695        1.98927        2.12479
