40
-1161.24154590
O          3.00711        8.64112        5.41738
C          3.15296        7.32462        5.59956
O          4.10905        6.80283        6.12316
C          1.98467        6.49893        5.04792
O          1.83234        5.38173        5.89904
C          0.64761        7.20873        5.02185
C         -0.34906        6.37854        4.23713
H         -1.30841        6.89531        4.19424
O         -0.57992        5.09422        4.82046
C          0.13706        6.18489        2.79518
H         -0.46218        5.36762        2.39001
N         -0.18029        7.33079        1.95353
C          0.56764        8.46406        1.81342
C          0.05096        9.43953        0.78170
O          1.59133        8.66842        2.45058
C          1.61394        5.75157        2.70103
H          2.04491        6.23697        1.82777
O          2.47075        6.14541        3.78172
C          1.73790        4.25055        2.44564
H          1.20847        4.06137        1.50077
O          1.21176        3.43497        3.47724
C          3.18549        3.84173        2.21926
H          3.79445        4.20820        3.04820
O          3.54914        4.46385        0.98818
C          3.34808        2.32771        2.12541
O          3.30765        1.69310        3.38721
H          3.82098        9.05319        5.74378
H          2.71263        4.99748        6.01718
H          0.77322        8.17317        4.53848
H          0.30440        7.35442        6.04518
H          0.11365        4.95908        5.48670
H         -1.01111        7.26024        1.39270
H         -0.97935        9.25241        0.48849
H          0.68595        9.37392       -0.10003
H          0.13957       10.44462        1.18319
H          0.42781        3.86566        3.85880
H          4.50604        4.42269        0.91237
H          4.32900        2.11533        1.70002
H          2.59534        1.92536        1.43888
H          2.47352        1.97405        3.78303
