30
-819.15055063
C         -1.33631       -4.43726        0.13804
C         -0.39644       -3.34356       -0.31501
C         -1.13652       -2.12682       -0.85494
C         -0.29942       -1.38817       -1.90382
C          1.19217       -1.62389       -1.68290
C          1.50282       -3.12829       -1.77280
O          0.41123       -3.92527       -1.32767
N          1.63947       -1.05522       -0.42934
C          1.70110        0.29827       -0.27348
O          1.49461        1.06512       -1.20649
C          2.01614        0.77055        1.12283
O         -0.67291       -1.87780       -3.19701
O         -1.42204       -1.31572        0.27869
O         -0.63384       -5.52477        0.70481
H         -2.00002       -4.04534        0.90559
H         -1.93597       -4.75311       -0.72137
H          0.20740       -3.04201        0.54760
H         -2.05555       -2.45157       -1.35170
H         -0.50549       -0.32032       -1.82151
H          1.75155       -1.13413       -2.47909
H          2.39204       -3.35639       -1.17827
H          1.69102       -1.62967        0.39343
H          1.07859        1.00240        1.62627
H          2.54916        0.02374        1.70657
H          2.60530        1.67992        1.06047
H         -0.45004       -1.19326       -3.83573
H         -2.04904       -0.63709        0.01142
H          0.00187       -5.80373        0.03753
O          1.78670       -3.52471       -3.07208
H          0.97301       -3.36041       -3.56754
