45
-1296.698834
C          3.33977        9.93216       -8.21723
C          4.32402        9.43953       -7.18449
C          5.71082        9.16166       -7.72850
C          6.55893        8.65633       -6.58344
C          5.92737        7.42292       -5.96250
C          4.48429        7.70324       -5.56707
O          3.76038        8.23566       -6.65487
O          4.53617        8.59927       -4.47401
C          3.28662        8.73639       -3.79421
C          3.24361       10.16078       -3.22872
O          2.39991       10.23820       -2.07273
C          1.29372        9.35539       -2.16313
C          1.75192        7.89943       -2.04616
C          3.15104        7.76965       -2.63520
O          3.41939        6.45097       -3.08546
O          1.80970        7.43820       -0.71239
O          0.44186        9.61439       -1.09191
C          2.86239       11.21457       -4.25465
O          1.63820       10.91077       -4.90104
O          6.69746        6.96337       -4.86610
O          7.84838        8.36855       -7.10015
O          6.22003       10.36989       -8.26309
O          2.05240       10.11405       -7.62761
H          3.28270        9.22056       -9.04394
H          3.65777       10.89599       -8.60203
H          4.41135       10.18418       -6.39171
H          5.65203        8.38473       -8.49979
H          6.61926        9.44758       -5.82775
H          5.92581        6.62425       -6.70469
H          3.96330        6.79265       -5.28352
H          2.47804        8.58664       -4.51354
H          4.24846       10.38753       -2.86516
H          0.79114        9.51967       -3.11919
H          1.07255        7.27597       -2.63776
H          3.86097        8.05809       -1.85470
H          3.33688        5.87231       -2.31992
H          1.14772        7.93963       -0.22082
H          0.20088       10.54526       -1.12999
H          3.67834       11.31886       -4.97117
H          2.76316       12.16360       -3.72468
H          1.80725       10.81158       -5.85056
H          6.38345        7.45980       -4.09976
H          8.33865        7.93978       -6.38922
H          7.16730       10.23451       -8.38129
H          1.78379        9.23898       -7.32475
