40
-1161.25188321
O          8.94107       -1.30113        0.54312
C          7.71900       -1.32846       -0.00374
O          7.50759       -1.49013       -1.18333
C          6.58813       -1.12003        1.01250
O          5.38652       -1.39465        0.34537
C          6.69416       -2.02715        2.23540
C          7.51972       -1.35888        3.31082
H          8.50369       -1.12611        2.89262
O          7.65256       -2.27960        4.38081
C          6.86086       -0.05352        3.75451
H          6.15869       -0.28719        4.55206
N          7.91083        0.79680        4.30001
C          7.65959        1.85995        5.10277
C          8.84359        2.72653        5.44273
O          6.53700        2.11162        5.54058
C          6.10205        0.62678        2.59972
H          6.27578        1.70258        2.63971
O          6.70922        0.24681        1.34738
C          4.57902        0.41490        2.58769
H          4.32865       -0.64275        2.70323
O          4.05832        0.92820        1.37673
C          3.85182        1.18424        3.69517
H          4.04644        2.25248        3.55130
O          4.23102        0.76293        4.99656
C          2.35403        0.93802        3.61367
O          2.05054       -0.40926        3.93965
H          9.56833       -1.42402       -0.18560
H          5.59904       -1.37550       -0.60202
H          7.14277       -2.97997        1.95965
H          5.69230       -2.23282        2.60802
H          8.09733       -1.82667        5.10465
H          8.81102        0.76198        3.84829
H          9.78737        2.31650        5.09275
H          8.87920        2.85381        6.52128
H          8.69016        3.70782        4.99850
H          4.35713        0.32036        0.68913
H          5.01145        1.27735        5.27036
H          1.99082        1.11525        2.60722
H          1.86103        1.62563        4.30559
H          2.47640       -0.56639        4.78975
