30
-819.15988478
C          0.88083       -5.44964       -3.46723
C          0.73426       -4.46151       -2.32010
C         -0.29339       -3.37923       -2.61690
C         -0.17873       -2.27223       -1.59879
C          1.22588       -1.64041       -1.64411
C          2.23756       -2.56896       -2.31617
O          2.03008       -3.91805       -1.99441
N          1.71559       -1.32694       -0.31316
C          1.05148       -0.46852        0.49555
O          0.01807        0.09663        0.13569
C          1.65527       -0.22897        1.85411
O         -1.20697       -1.34984       -1.88735
O         -1.57432       -3.99641       -2.53945
O         -0.26622       -6.26245       -3.61245
H          1.10335       -4.89557       -4.38619
H          1.71990       -6.10976       -3.25507
H          0.39436       -5.00367       -1.43575
H         -0.13769       -2.96337       -3.61424
H         -0.32017       -2.71511       -0.60591
H          1.16273       -0.72188       -2.22775
H          3.24173       -2.36079       -1.93787
H          2.49751       -1.84056        0.05631
H          1.90017        0.82711        1.93892
H          0.90811       -0.45728        2.60992
H          2.54882       -0.82059        2.03554
H         -1.09047       -0.63349       -1.24086
H         -2.21193       -3.27126       -2.54837
H         -1.03577       -5.68806       -3.51290
O          2.17343       -2.32001       -3.69792
H          2.81327       -2.90438       -4.11927
