30
-819.15230399
C         -0.69928       -4.57301        0.37389
C          0.03748       -3.39069       -0.20675
C         -0.88843       -2.27210       -0.67951
C         -0.29098       -1.60933       -1.92996
C          1.23256       -1.52472       -1.81231
C          1.80769       -2.97051       -1.72948
O          0.79226       -3.88633       -1.31425
N          1.60497       -0.71738       -0.66730
C          2.54175        0.30076       -0.67655
O          2.60173        1.09520        0.24643
C          3.48278        0.34384       -1.85493
O         -0.66185       -2.31359       -3.10098
O         -1.00960       -1.37064        0.41936
O          0.18919       -5.53436        0.90004
H         -1.33176       -4.23405        1.19235
H         -1.33875       -5.00052       -0.40643
H          0.71331       -2.99088        0.55458
H         -1.86507       -2.67577       -0.96145
H         -0.70070       -0.60396       -2.03042
H          1.61851       -1.06677       -2.71891
H          2.08954       -3.32876       -2.71583
H          0.91648       -0.62270        0.07170
H          4.28974        1.02445       -1.60777
H          3.88244       -0.64064       -2.08913
H          2.96595        0.72146       -2.73704
H         -0.40674       -3.23271       -2.95033
H         -1.75506       -0.78506        0.25347
H          0.83958       -5.70723        0.21091
O          2.92964       -3.03220       -0.92117
H          2.84020       -2.31441       -0.27541
