40
-1161.24704273
O          7.39915        1.38124        1.59375
C          6.60802        0.40603        2.09406
O          6.54001        0.13837        3.26914
C          5.74674       -0.22211        0.98714
O          6.39397       -0.23556       -0.22935
C          5.29061       -1.62186        1.34800
C          3.91443       -1.96475        0.80570
H          3.57039       -2.85665        1.33807
O          4.01254       -2.23231       -0.57552
C          2.87575       -0.84102        1.09145
H          2.53213       -0.50193        0.11183
N          1.73783       -1.33668        1.82606
C          0.94495       -2.26159        1.23165
C         -0.19272       -2.78746        2.06794
O          1.13551       -2.62871        0.07112
C          3.53032        0.36084        1.75632
H          3.90099        0.14078        2.76097
O          4.63329        0.68643        0.89561
C          2.64762        1.63052        1.79436
H          1.87503        1.54385        1.02245
O          3.44433        2.78821        1.55705
C          1.98195        1.97599        3.12986
H          1.43491        2.90414        2.93149
O          2.97174        2.19454        4.12423
C          1.00095        0.99991        3.74285
O          1.65679       -0.12631        4.31815
H          7.85359        1.78158        2.34906
H          6.78857        0.63368       -0.36571
H          5.27285       -1.71014        2.43276
H          6.02128       -2.32856        0.96032
H          3.11534       -2.48211       -0.84022
H          1.68745       -1.17144        2.82584
H         -0.16748       -2.41489        3.08932
H         -0.15096       -3.87374        2.07246
H         -1.13059       -2.49575        1.59968
H          4.17879        2.48937        1.00272
H          3.64642        2.73768        3.69616
H          0.30901        0.62560        2.99113
H          0.43114        1.52503        4.51076
H          2.40527        0.23530        4.81068
