40
-1161.25418795
O          0.04424        4.58949        5.64607
C          0.58917        5.28475        6.67094
O          0.28446        5.12561        7.82596
C          1.61967        6.29351        6.13549
O          1.02481        7.09244        5.17140
C          2.19603        7.17770        7.21024
C          3.14226        6.45864        8.16415
H          2.58236        5.74969        8.78301
O          3.72090        7.46121        8.96962
C          4.17006        5.65375        7.36768
H          4.80752        6.36014        6.82445
N          4.99491        4.79119        8.20340
C          6.03354        5.25214        8.93877
C          6.93249        4.19578        9.52877
O          6.24005        6.45151        9.13206
C          3.43081        4.75437        6.37331
H          2.78248        4.06839        6.93531
O          2.65506        5.55245        5.48206
C          4.31313        3.88327        5.47756
H          3.66878        3.52611        4.66624
O          4.76182        2.79068        6.27392
C          5.47652        4.64610        4.84790
H          6.13100        5.01132        5.65075
O          5.02915        5.71146        4.03260
C          6.29307        3.75042        3.92676
O          6.94449        2.68809        4.63388
H         -0.61816        4.00082        6.03686
H          0.60705        6.50560        4.52847
H          1.39609        7.64483        7.78051
H          2.75574        7.96129        6.69976
H          4.65845        7.23360        9.11172
H          5.00614        3.81255        7.94716
H          6.63593        3.18502        9.26076
H          6.92316        4.29990       10.61105
H          7.94917        4.38228        9.19021
H          5.54466        2.42693        5.82576
H          4.17116        6.01088        4.36481
H          7.00976        4.36529        3.38334
H          5.63223        3.27792        3.20287
H          7.73305        3.04698        5.05029
