45
-1296.697799
C         -0.03913       -8.17127       -2.20205
C         -1.17854       -7.23767       -2.54189
C         -1.96384       -6.77882       -1.31754
C         -3.13117       -5.92999       -1.76769
C         -3.98092       -6.73342       -2.72333
C         -3.13178       -7.21464       -3.88970
O         -2.04479       -7.98027       -3.41312
O         -2.69044       -6.09173       -4.59996
C         -2.66436       -6.23404       -6.01625
C         -1.44763       -5.47150       -6.53588
O         -1.67866       -4.92040       -7.83783
C         -2.46225       -5.79491       -8.65173
C         -3.90271       -5.84381       -8.11930
C         -3.91137       -5.61640       -6.61991
O         -5.10928       -6.16325       -6.10579
O         -4.64686       -4.84701       -8.80327
O         -2.39993       -5.36883       -9.95819
C         -0.18807       -6.31421       -6.54771
O          0.92678       -5.55771       -6.97100
O         -5.06415       -5.97600       -3.23686
O         -3.97860       -5.56011       -0.69061
O         -1.17307       -5.96475       -0.45898
O         -0.47414       -9.30306       -1.46791
H          0.68553       -7.65082       -1.57952
H          0.45984       -8.46515       -3.12835
H         -0.78348       -6.35992       -3.06145
H         -2.34283       -7.65258       -0.78365
H         -2.75041       -5.04095       -2.27950
H         -4.35399       -7.61619       -2.19596
H         -3.70505       -7.88155       -4.53256
H         -2.60615       -7.29874       -6.27052
H         -1.29669       -4.61216       -5.88216
H         -2.02432       -6.79564       -8.61377
H         -4.31862       -6.83526       -8.32156
H         -3.86388       -4.53739       -6.44355
H         -5.17670       -5.91922       -5.16856
H         -5.54039       -4.86261       -8.44666
H         -3.12334       -4.73833      -10.07306
H         -0.33654       -7.19161       -7.18767
H          0.01956       -6.66952       -5.53876
H          0.63945       -5.09315       -7.76581
H         -5.45498       -5.51159       -2.48729
H         -3.42282       -5.10348       -0.04955
H         -0.67538       -6.54467        0.12429
H         -1.12459       -9.75097       -2.01829
