45
-1296.699808
C         -1.00331        4.42779        7.76766
C         -1.27259        4.31371        6.28602
C         -2.71845        3.97949        5.96491
C         -2.86388        3.77939        4.47180
C         -1.90679        2.69846        4.00592
C         -0.49094        3.06184        4.42838
O         -0.41223        3.26121        5.81766
O         -0.12461        4.22629        3.72322
C          1.26434        4.29028        3.37422
C          1.59923        5.78278        3.30953
O          1.07251        6.40204        2.13957
C          1.43537        5.77570        0.89521
C          0.84258        4.37577        0.90117
C          1.43467        3.54712        2.04477
O          2.76926        3.18624        1.77054
O         -0.58033        4.50167        0.99102
O          0.92108        6.55405       -0.12271
C          3.04765        6.14273        3.57824
O          3.92332        5.49596        2.65154
O         -2.01648        2.44899        2.61966
O         -4.21224        3.41945        4.21923
O         -3.52214        5.04985        6.42663
O          0.35709        4.74089        8.01630
H         -1.28988        3.49107        8.25515
H         -1.60189        5.23412        8.18099
H         -1.00146        5.25208        5.79673
H         -2.99017        3.04267        6.46622
H         -2.62209        4.72441        3.97194
H         -2.17417        1.76633        4.50494
H          0.19934        2.24644        4.20609
H          1.86872        3.81233        4.15089
H          1.04367        6.24059        4.13022
H          2.51670        5.76217        0.78364
H          1.05827        3.87635       -0.04046
H          0.86890        2.61692        2.11149
H          3.34015        3.93399        2.00776
H         -0.72872        5.07391        1.75862
H         -0.02066        6.34814       -0.17630
H          3.28662        5.84481        4.60209
H          3.14016        7.22553        3.48941
H          4.82964        5.74442        2.85332
H         -1.55758        3.15212        2.13083
H         -4.24916        3.12196        3.30261
H         -4.39787        4.91276        6.04775
H          0.86687        4.05261        7.57790
