30
-819.15661176
C         -0.26141       -5.29906       -0.28735
C          0.49787       -4.07654        0.19855
C         -0.06431       -2.73692       -0.30441
C          0.60951       -2.23102       -1.58161
C          2.13468       -2.34670       -1.46642
C          2.51990       -3.78897       -1.16853
O          1.92162       -4.22614        0.03381
N          2.65911       -1.50915       -0.39995
C          3.01863       -0.20649       -0.66448
O          2.74493        0.32725       -1.72612
C          3.71119        0.51373        0.46507
O          0.18018       -2.93838       -2.74321
O         -0.00410       -1.74719        0.71369
O         -0.33425       -5.43173       -1.70230
H          0.19381       -6.18652        0.15514
H         -1.28812       -5.22454        0.06840
H          0.36475       -4.05508        1.28112
H         -1.12622       -2.87670       -0.51535
H          0.34718       -1.18094       -1.70566
H          2.57655       -2.02811       -2.41132
H          3.58574       -3.86897       -0.95730
H          3.08623       -1.97557        0.38574
H          4.56577        1.04875        0.06086
H          3.02335        1.24943        0.87751
H          4.03662       -0.15104        1.26152
H         -0.28920       -3.74321       -2.45205
H          0.89244       -1.39135        0.69119
H          0.57666       -5.60104       -1.98939
O          2.24775       -4.62162       -2.27164
H          1.66472       -4.10827       -2.85660
