24
-686.52812822
C         -2.34178        0.38148        0.44060
C         -0.92831        0.25097        0.98674
C          0.01855        1.27219        0.35808
C          1.42846        0.77251        0.55424
C          1.61861       -0.46488       -0.29335
C          0.37977       -1.36228       -0.23268
O         -0.46247       -1.09746        0.86666
O         -0.30389       -1.20783       -1.45781
O          2.72537       -1.23954        0.13830
O          2.40171        1.72098        0.15601
O         -0.08149        2.53289        1.00495
O         -2.85232        1.69498        0.68962
H         -2.98245       -0.38657        0.87627
H         -2.33120        0.25777       -0.63914
H         -0.94089        0.46069        2.05934
H         -0.18308        1.37839       -0.71279
H          1.56064        0.50350        1.60795
H          1.74825       -0.14462       -1.32937
H          0.70204       -2.39112       -0.08120
H         -1.01511       -1.85672       -1.46504
H          3.48643       -0.64960        0.14337
H          2.13174        2.56076        0.54553
H         -0.98983        2.82853        0.86795
H         -3.15246        1.72330        1.60226
