24
-686.52917716
C         -1.51941        0.17722        2.45552
C         -0.30389       -0.26381        1.68056
C          0.89510        0.67298        1.88508
C          1.65237        0.84257        0.56382
C          1.75115       -0.50684       -0.13689
C          0.32099       -1.00508       -0.47481
O         -0.65570       -0.31447        0.30530
O          0.23513       -2.37919       -0.31322
O          2.43381       -1.46253        0.67309
O          1.02865        1.80728       -0.25984
O          1.71514        0.05053        2.88901
O         -1.81433        1.51750        2.08414
H         -1.29660        0.10156        3.52362
H         -2.34439       -0.49366        2.21243
H         -0.02198       -1.26215        2.02939
H          0.55935        1.65556        2.21497
H          2.65586        1.21428        0.77558
H          2.31331       -0.40930       -1.06319
H          0.05070       -0.74905       -1.49582
H          1.02173       -2.62370        0.20055
H          2.37553       -1.16543        1.59489
H          0.09411        1.56107       -0.29347
H          2.32968        0.71175        3.22325
H         -2.68439        1.73839        2.42344
