45
-1296.70780810
C         -1.42761       15.19704       10.20211
C         -0.64390       13.97470        9.78584
C          0.08556       14.16435        8.46734
C          0.74677       12.86173        8.07821
C         -0.29397       11.76270        7.99437
C         -1.05184       11.68183        9.31250
O         -1.61452       12.92129        9.65913
O          1.64361       10.27331       13.10265
C          1.75849        9.69023       11.81858
C          0.37174        9.22164       11.41051
O          0.42493        8.59383       10.12125
C          1.28142        7.47752       10.05175
C          2.70088        7.84122       10.46355
C          2.69395        8.50413       11.82791
O          3.98310        8.98539       12.17100
O          3.55622        6.71184       10.44643
O          0.87834        6.43229       10.90785
C         -0.60734       10.36457       11.27823
O         -0.12181       11.22296       10.25692
O          0.29403       10.51551        7.66644
O          1.38822       13.06469        6.82722
O          1.03860       15.19756        8.64084
O         -2.09181       14.98968       11.43572
H         -2.13677       15.44781        9.40678
H         -0.74578       16.03163       10.33711
H          0.07480       13.71648       10.56711
H         -0.64172       14.43200        7.69110
H          1.48312       12.60359        8.84646
H         -0.99831       12.00776        7.19879
H         -1.89030       10.98679        9.23657
H          2.11899       10.41970       11.08599
H          0.00157        8.51789       12.16073
H          1.24767        7.16215        9.00928
H          3.10202        8.54515        9.73475
H          2.34033        7.78815       12.57810
H          4.59635        8.25265       12.04407
H          3.06573        6.00293       10.88036
H          0.07644        6.04080       10.54815
H         -0.67883       10.89777       12.22590
H         -1.58939        9.97331       11.00419
H          2.54311       10.41835       13.41723
H          0.52904       10.09788        8.50958
H          1.70660       12.20103        6.54135
H          1.62349       15.15326        7.87591
H         -2.59184       14.17421       11.33104
