45
-1296.69261700
C          0.80362       -0.43084        7.43724
C          1.29611        0.98565        7.19766
C          2.16474        1.53592        8.31572
C          2.59081        2.93443        7.94071
C          1.36543        3.79780        7.71078
C          0.42417        3.13933        6.70741
O          0.13418        1.81184        7.07244
O         -0.83183       -0.31214        4.08134
C         -0.03152        0.83544        3.86420
C         -0.78525        2.11428        4.18573
O         -1.76299        2.47888        3.18714
C         -1.65730        1.89118        1.92607
C         -0.22486        1.70084        1.46292
C          0.58154        0.85843        2.45202
O          1.89060        1.41824        2.45352
O         -0.19185        1.19930        0.14335
O         -2.26632        0.59841        1.87826
C          0.11899        3.33431        4.35616
O          1.03775        3.22888        5.44391
O          1.73147        5.10300        7.29859
O          3.38853        3.43918        9.00044
O          3.29026        0.68417        8.48357
O          1.84041       -1.37826        7.26814
H          0.03766       -0.65767        6.69787
H          0.35104       -0.49269        8.43229
H          1.87744        0.99839        6.27144
H          1.57252        1.57420        9.23692
H          3.17501        2.88004        7.01490
H          0.83585        3.90584        8.65706
H         -0.53812        3.65646        6.69257
H          0.79106        0.75951        4.57266
H         -1.34670        1.93890        5.10144
H         -2.18533        2.55691        1.24525
H          0.23769        2.68561        1.42046
H          0.59797       -0.17464        2.09656
H          2.47073        0.81277        2.92574
H         -0.74125        0.40762        0.14015
H         -3.21761        0.72113        1.96361
H         -0.52180        4.20918        4.49589
H          0.73468        3.48159        3.47277
H         -1.53523       -0.27890        3.41796
H          1.94935        5.02064        6.36108
H          3.55314        4.36881        8.80632
H          3.90575        1.15346        9.05874
H          2.57286       -1.08658        7.82341
