45
-1296.694130
C          1.77612        4.11385        4.59538
C          1.87643        3.60824        3.16185
C          1.53457        4.66380        2.11558
C          1.60144        4.03633        0.74056
C          0.67733        2.84657        0.67284
C          1.01535        1.85763        1.77600
O          0.95314        2.49992        3.03779
O          2.28340        1.32808        1.53708
C          2.47174       -0.05813        1.83093
C          3.61429       -0.23873        2.84207
O          4.38692       -1.40113        2.54787
C          3.57211       -2.49986        2.13635
C          3.00502       -2.23054        0.73614
C          2.83362       -0.73896        0.52501
O          1.84063       -0.55457       -0.46171
O          3.90735       -2.78960       -0.20736
O          4.31623       -3.65496        2.18676
C          3.14499       -0.29717        4.29257
O          2.51237        0.89855        4.72764
O          0.77311        2.17549       -0.57130
O          1.18344        4.92547       -0.28310
O          2.49076        5.71443        2.08640
O          2.76264        3.60234        5.45935
H          0.76168        3.90350        4.95011
H          1.90775        5.19588        4.61180
H          2.89631        3.26032        2.98259
H          0.52456        5.05115        2.28818
H          2.62978        3.70451        0.56663
H         -0.34716        3.19120        0.84173
H          0.26537        1.06612        1.81477
H          1.53056       -0.47496        2.21045
H          4.28633        0.61070        2.71626
H          2.74767       -2.61106        2.84512
H          2.02440       -2.70751        0.65410
H          3.79859       -0.33466        0.20257
H          1.69053        0.39789       -0.57266
H          3.54880       -2.62137       -1.08406
H          4.73185       -3.74861        1.31931
H          4.01412       -0.44018        4.92906
H          2.47954       -1.15333        4.43472
H          1.80308        1.15193        4.11851
H          0.75215        2.86038       -1.25064
H          1.74686        5.70448       -0.21892
H          2.39315        6.25059        2.87793
H          2.76600        2.63608        5.38045
