45
-1296.693252
C          2.49749        2.77620       -4.98094
C          3.36310        4.00968       -4.88392
C          3.38821        4.85648       -6.14250
C          4.29403        6.04164       -5.88467
C          5.67952        5.57288       -5.49045
C          5.62197        4.54994       -4.36007
O          4.68956        3.53733       -4.60480
O          5.33947        5.26398       -3.17108
C          5.88395        4.63514       -2.00811
C          4.84188        4.68614       -0.89598
O          5.44142        4.47181        0.38849
C          6.69900        3.78343        0.31999
C          7.71802        4.73027       -0.31250
C          7.13970        5.37154       -1.57486
O          8.13966        5.36306       -2.57751
O          8.12443        5.69053        0.65650
O          7.06705        3.41867        1.59576
C          3.71142        3.70294       -1.12348
O          4.18976        2.37180       -1.30007
O          6.51300        6.67163       -5.13186
O          4.32337        6.82161       -7.06933
O          2.06737        5.27983       -6.41932
O          2.32980        2.15338       -3.72206
H          2.94039        2.09584       -5.71502
H          1.50793        3.06465       -5.32471
H          3.00492        4.62902       -4.05688
H          3.79645        4.26699       -6.97182
H          3.85877        6.61843       -5.05849
H          6.14920        5.10496       -6.35444
H          6.58199        4.04389       -4.26406
H          6.11597        3.59682       -2.25049
H          4.41971        5.69545       -0.88151
H          6.58512        2.86947       -0.26349
H          8.61653        4.17917       -0.58329
H          6.84867        6.40164       -1.33233
H          7.81405        5.86035       -3.33872
H          7.35552        6.24302        0.83944
H          7.54394        4.17750        1.95954
H          3.17049        3.96525       -2.02923
H          3.01985        3.76256       -0.28278
H          4.24432        1.96160       -0.43310
H          6.11576        7.03273       -4.32868
H          4.97591        7.51821       -6.93888
H          2.13880        5.97769       -7.08054
H          3.20036        1.96367       -3.35183
