45
-1296.693550
C          4.65345        4.45286       -2.65491
C          5.45226        4.47734       -1.37299
C          6.79118        3.77273       -1.49427
C          7.46847        3.78281       -0.14309
C          6.57500        3.11662        0.88589
C          5.21103        3.79183        0.89539
O          4.63684        3.81437       -0.39399
O          5.42081        5.07223        1.42236
C          4.28560        5.67758        2.03451
C          3.45833        6.51544        1.03703
O          3.43761        7.90584        1.36032
C          3.12008        8.30048        2.68384
C          3.60612        7.29229        3.73055
C          4.79487        6.54085        3.15952
O          5.37939        5.69845        4.13377
O          3.94324        7.91445        4.95710
O          3.83498        9.48568        2.92595
C          2.06583        5.96446        0.82248
O          1.38168        5.96894        2.07178
O          7.16596        3.13205        2.17127
O          8.70164        3.09328       -0.27982
O          7.55721        4.46024       -2.46660
O          3.39677        5.09244       -2.48801
H          4.52744        3.41564       -2.97906
H          5.19216        4.99619       -3.42543
H          5.62312        5.51381       -1.07040
H          6.62328        2.73141       -1.79494
H          7.64304        4.82332        0.15042
H          6.44355        2.07043        0.60839
H          4.50472        3.23848        1.51813
H          3.66466        4.89222        2.47577
H          3.96606        6.47809        0.07513
H          2.04646        8.47763        2.76335
H          2.81251        6.58047        3.94716
H          5.52893        7.25238        2.76727
H          5.36586        6.20933        4.95362
H          4.28330        8.78884        4.72692
H          3.63743       10.09601        2.20912
H          2.16077        4.94718        0.43016
H          1.55145        6.58642        0.08764
H          0.49015        5.64044        1.93045
H          6.93817        3.98653        2.56544
H          9.06415        3.00344        0.60900
H          8.46378        4.14912       -2.36247
H          2.95265        4.60977       -1.78446
