24
-686.52476720
C          0.31403        2.14830       -0.49429
C          1.55805        1.32108       -0.25188
C          1.25354       -0.15359       -0.03613
C          0.70901       -0.43373        1.36467
C          0.02842       -1.79685        1.44534
C          0.91535       -2.93893        1.00384
O          0.53062       -3.72341        0.15760
O         -1.14567       -1.77598        0.67717
O          1.76131       -0.43842        2.31829
O          2.39896       -0.95737       -0.26719
O          2.24835        1.81805        0.89746
O          0.76585        3.49904       -0.58107
H         -0.16318        1.82951       -1.42307
H         -0.39139        2.02912        0.33027
H          2.20550        1.40237       -1.12879
H          0.50792       -0.46124       -0.77039
H         -0.05035        0.30864        1.62224
H         -0.19298       -1.97292        2.50569
H          1.87755       -3.05702        1.51495
H         -1.09303       -2.57568        0.12877
H          2.12152        0.46007        2.30004
H          2.94281       -0.86442        0.52560
H          2.26272        2.77811        0.79819
H          0.00170        4.07977       -0.56792
