24
-686.52558622
C         -2.55704       -1.06674        0.93116
C         -1.87919       -1.36341        2.24805
C         -0.36682       -1.16148        2.26810
C          0.34373       -1.87529        1.11848
C          1.85505       -1.65166        1.14203
C          2.47619       -2.49422        0.05158
O          3.33936       -3.30727        0.30581
O          2.44438       -1.98247        2.37866
O          0.13098       -3.27063        1.10363
O          0.03341       -1.63267        3.54355
O         -2.18486       -2.73045        2.55315
O         -3.96475       -1.13908        1.05527
H         -2.32189       -0.05289        0.61073
H         -2.19841       -1.76508        0.16917
H         -2.31240       -0.71836        3.01677
H         -0.16219       -0.08819        2.16435
H         -0.01515       -1.41515        0.18645
H          2.04959       -0.59757        0.91405
H          2.10320       -2.33953       -0.97130
H          3.01509       -2.74614        2.19006
H         -0.74499       -3.42855        1.48884
H          0.97374       -1.86336        3.47435
H         -1.73336       -2.90495        3.39077
H         -4.15578       -1.99506        1.45230
