40
-1161.25198515
O          4.24365        3.74432        4.16142
C          5.10922        2.90668        3.57889
O          6.19119        3.25199        3.15657
C          4.53640        1.49430        3.43311
O          4.04634        1.12046        4.68149
C          3.44604        1.50976        2.35368
C          3.17600        0.09498        1.86916
H          2.45463        0.11729        1.05364
O          2.67738       -0.72820        2.94157
C          4.47240       -0.57464        1.37900
H          4.58630       -1.48999        1.95413
N          4.42987       -0.95478       -0.01903
C          4.22986       -0.04489       -1.00907
C          4.38151       -0.56355       -2.41710
O          3.94341        1.12426       -0.76685
C          5.67427        0.30476        1.70421
H          5.66024        1.21495        1.10279
O          5.59085        0.62127        3.09342
C          6.99964       -0.38441        1.43815
H          7.17449       -0.34249        0.35976
O          6.90326       -1.73962        1.87269
C          8.14411        0.34780        2.13989
H          8.01479        0.23262        3.21777
O          8.15938        1.71365        1.75470
C          9.49975       -0.19813        1.73598
O          9.72926       -0.04106        0.34503
H          4.67069        4.61431        4.16550
H          3.64826        0.24954        4.53671
H          3.74339        2.10891        1.49341
H          2.55506        1.95915        2.78986
H          1.77090       -0.45395        3.11645
H          4.77037       -1.86867       -0.26323
H          4.43104       -1.64829       -2.46895
H          5.29273       -0.14499       -2.84054
H          3.54468       -0.20679       -3.01071
H          7.71460       -2.18233        1.60847
H          7.49077        2.18912        2.27328
H          9.58127       -1.26257        1.95297
H         10.26352        0.31911        2.32096
H          9.55589        0.88964        0.16265
