24
-686.52223041
C          3.00161       -1.61352        0.52435
C          1.68122       -1.33395        1.22438
C          1.54680        0.02843        1.89939
C          2.57349        0.45825        2.94360
C          2.81033       -0.42514        4.17830
C          1.57496       -0.59910        5.02994
O          1.47805       -0.01648        6.09317
O          3.81698        0.21960        4.93571
O          3.83178        0.64770        2.29558
O          0.25859        0.11928        2.49741
O          1.40055       -2.36845        2.16506
O          4.01219       -1.95656        1.45962
H          2.87198       -2.47931       -0.12159
H          3.29259       -0.75976       -0.08992
H          0.88511       -1.36361        0.47631
H          1.59383        0.78553        1.11270
H          2.21465        1.41911        3.32581
H          3.17596       -1.40504        3.87006
H          0.79893       -1.28351        4.67277
H          3.36381        0.53587        5.73410
H          4.42572        0.95969        2.99230
H         -0.00457       -0.78561        2.70130
H          2.26708       -2.72797        2.40173
H          4.29474       -1.10824        1.83763
