45
-1296.696402
C         -2.00238        9.19827       -0.42902
C         -1.71565        8.35048        0.78698
C         -2.28332        8.88980        2.08574
C         -1.88566        7.93375        3.18963
C         -0.37579        7.80464        3.25367
C          0.19619        7.44419        1.88902
O         -0.28322        8.28796        0.88083
O         -0.11427        6.08641        1.65367
C          0.58393        5.54867        0.51665
C         -0.39655        5.36598       -0.63678
O         -1.27737        4.26924       -0.42152
C         -0.62510        3.02378       -0.18351
C          0.17938        3.13971        1.10658
C          1.22475        4.24315        0.97566
O          2.19190        3.89778       -0.01143
O         -0.70432        3.36042        2.19553
O         -1.59881        2.04848       -0.08047
C          0.27983        5.32825       -2.00041
O          0.83337        6.63586       -2.16951
O          0.02157        6.88195        4.25381
O         -2.40760        8.44047        4.40718
O         -3.68975        8.96668        1.95533
O         -1.59613        8.55013       -1.62075
H         -1.50851       10.16737       -0.30735
H         -3.07430        9.35898       -0.50495
H         -2.12649        7.34989        0.62459
H         -1.85246        9.87632        2.29413
H         -2.32708        6.95541        2.96415
H          0.03667        8.77116        3.54347
H          1.28092        7.57148        1.87977
H          1.36785        6.23956        0.20301
H         -1.04260        6.23880       -0.65850
H          0.01390        2.75788       -1.02594
H          0.67245        2.18660        1.30272
H          1.69255        4.41923        1.94776
H          2.68038        3.13281        0.30789
H         -1.09278        4.23406        2.05166
H         -2.00520        2.17174        0.78728
H         -0.48977        5.12201       -2.74610
H          1.05991        4.57026       -2.05358
H          1.29597        6.65845       -3.01087
H         -0.07058        6.00413        3.86211
H         -2.05539        7.88621        5.11279
H         -4.03835        9.07737        2.84730
H         -0.65949        8.32882       -1.54691
