45
-1296.698011
C         -0.63786       -6.65985       11.68732
C          0.04918       -5.32212       11.57473
C         -0.02641       -4.44657       12.80860
C          0.74899       -3.18216       12.50301
C          0.18306       -2.49162       11.27348
C          0.07404       -3.47285       10.11298
O         -0.60712       -4.64580       10.48795
O          1.38854       -3.73691        9.70677
C          1.49881       -4.17799        8.35641
C          2.78325       -5.00369        8.25320
O          3.32113       -4.88464        6.93678
C          3.77073       -3.60498        6.60102
C          2.93135       -2.47013        7.20647
C          1.51015       -2.96206        7.42215
O          0.90602       -3.34636        6.19478
O          3.41577       -2.04265        8.46458
O          5.09409       -3.37686        7.04417
C          2.57598       -6.49858        8.44966
O          2.22797       -6.80694        9.78253
O          0.95961       -1.36320       10.91113
O          0.67147       -2.34222       13.64538
O          0.54295       -5.15453       13.89424
O         -0.53909       -7.35654       10.44122
H         -1.68530       -6.52893       11.96847
H         -0.14192       -7.26956       12.43585
H          1.09573       -5.48669       11.31595
H         -1.07202       -4.18811       13.01415
H          1.78916       -3.46529       12.30733
H         -0.81456       -2.12369       11.51356
H         -0.51269       -3.04447        9.29743
H          0.63540       -4.79512        8.09097
H          3.48861       -4.63156        8.99959
H          3.72022       -3.57063        5.51393
H          2.93401       -1.63588        6.49647
H          0.94335       -2.16515        7.91066
H          0.76317       -2.55166        5.67197
H          4.37452       -2.15818        8.43492
H          5.63349       -4.10708        6.72468
H          3.51673       -6.99354        8.20577
H          1.82424       -6.84482        7.73626
H          1.30609       -7.09947        9.83000
H          1.72671       -1.70753       10.42855
H          1.10171       -1.51328       13.40738
H          0.71790       -4.50023       14.58023
H         -0.99015       -6.79271        9.80259
