40
-1161.25434983
O         -0.25100        6.46835        0.36518
C         -1.09810        7.51509        0.39380
O         -2.29738        7.42420        0.31138
C         -0.33057        8.82509        0.57826
O          0.80985        8.86564       -0.24680
C         -1.16458       10.03471        0.24637
C         -0.32415       11.29940        0.43014
H         -1.00221       12.11931        0.67562
O          0.32108       11.70632       -0.76136
C          0.68636       11.13436        1.57635
H          1.63824       10.81710        1.15385
N          0.90111       12.41528        2.21919
C          2.11845       12.85749        2.62253
C          2.17284       14.28506        3.09940
O          3.12424       12.14880        2.60354
C          0.23267       10.07492        2.57886
H         -0.70482       10.39829        3.04484
O          0.02187        8.80135        1.94283
C          1.26495        9.82308        3.67526
H          1.29174       10.72094        4.30464
O          2.53749        9.52826        3.14557
C          0.87685        8.62170        4.53463
H          1.17109        7.72081        3.99490
O         -0.51975        8.59324        4.83422
C          1.58600        8.65562        5.86906
O          1.29663        7.50332        6.63801
H         -0.79579        5.67192        0.28378
H          1.39513        8.15295        0.04176
H         -2.03036       10.03601        0.90604
H         -1.52353        9.98655       -0.77914
H          0.86619       10.95919       -1.03669
H          0.14199       13.07545        2.22260
H          1.19775       14.76409        3.13332
H          2.82315       14.84227        2.42875
H          2.62240       14.30345        4.08866
H          2.94265       10.38081        2.90299
H         -0.96261        8.22885        4.06148
H          1.28424        9.56637        6.39870
H          2.66027        8.68249        5.70925
H          0.33692        7.42587        6.62971
