24
-686.53357814
C         -2.34637        0.76904       -0.69547
C         -1.06219        0.32364       -0.01641
C         -0.00923        1.42673        0.02012
C          1.27923        0.85075        0.55590
C          1.69897       -0.36911       -0.23303
C          0.56677       -1.38487       -0.22891
O         -0.59449       -0.77096       -0.78634
O          0.84456       -2.52530       -0.95535
O          2.84882       -0.96500        0.32743
O          2.35117        1.77826        0.48870
O         -0.35672        2.49889        0.88063
O         -2.92956        1.90529       -0.05417
H         -3.04434       -0.06670       -0.74189
H         -2.11621        1.07674       -1.71328
H         -1.27404        0.00861        1.01568
H          0.15740        1.78158       -1.00399
H          1.10849        0.54819        1.59618
H          1.87577       -0.06985       -1.27485
H          0.35521       -1.71199        0.79320
H          1.23360       -2.25765       -1.79394
H          3.45592       -0.24033        0.51702
H          2.05166        2.57647        0.93801
H         -1.25315        2.76434        0.63358
H         -3.38929        1.59782        0.73185
