24
-686.53009993
C         -0.58191        2.34464       -1.33967
C         -0.40125        1.08241       -0.51672
C          0.47548        1.24191        0.73223
C          1.91386        0.81533        0.47587
C          1.96710       -0.62265       -0.07541
C          0.68045       -1.02217       -0.82839
O          0.12198        0.12691       -1.44021
O         -0.23042       -1.70791       -0.01626
O          2.23615       -1.53337        0.97956
O          2.60035        1.74157       -0.33201
O         -0.11418        0.39957        1.73866
O          0.61645        2.72114       -2.01073
H         -0.86128        3.17662       -0.69781
H         -1.37972        2.17812       -2.06401
H         -1.38979        0.76441       -0.17005
H          0.45245        2.28137        1.06714
H          2.44113        0.78332        1.43280
H          2.79375       -0.63621       -0.78711
H          0.90739       -1.69259       -1.65195
H         -0.38490       -1.14800        0.76620
H          1.52150       -2.18150        0.96385
H          1.97243        2.15734       -0.94680
H          0.53865        0.27651        2.43765
H          0.79144        2.01455       -2.64352
