45
-1296.69692183
C         11.83652       -0.37044       10.20089
C         11.21825        0.90800        9.67452
C         10.82173        1.88861       10.77828
C          9.68597        2.75528       10.27354
C          8.44927        1.90728       10.01097
C          8.89962        0.51147        9.57545
O         10.09723        0.58482        8.83079
O         10.49669       -1.76982        6.88602
C          9.37043       -1.08000        6.35394
C          8.12655       -1.66390        7.00285
O          6.94323       -1.08555        6.44642
C          6.81566       -1.22923        5.05672
C          8.01976       -0.66150        4.31931
C          9.28818       -1.28855        4.86097
O         10.44630       -0.70012        4.29062
O          7.91440       -0.85200        2.91848
O          6.71496       -2.58066        4.65353
C          8.05120       -1.41864        8.49227
O          7.90617       -0.02718        8.77256
O          7.67939        2.55981        9.02188
O          9.46955        3.76033       11.25688
O         11.96432        2.65953       11.09078
O         12.23676       -1.22568        9.15452
H         11.12656       -0.86883       10.87333
H         12.72224       -0.12114       10.78394
H         11.92958        1.41503        9.02435
H         10.48103        1.34965       11.67292
H          9.98723        3.20402        9.32391
H          7.88416        1.81197       10.94449
H          9.05915       -0.11959       10.46068
H          9.43462       -0.01203        6.57467
H          8.13362       -2.74705        6.84178
H          5.90989       -0.68175        4.79828
H          8.05595        0.41395        4.48791
H          9.27065       -2.36546        4.65977
H         10.32619       -0.72213        3.33446
H          7.61343       -1.76132        2.79989
H          5.86334       -2.91685        4.94880
H          8.95144       -1.81722        8.96141
H          7.17592       -1.93057        8.89232
H         11.23366       -1.56897        6.29473
H          7.14679        1.87585        8.59679
H          8.87483        4.41494       10.87876
H         11.63875        3.41456       11.59574
H         11.49083       -1.30872        8.54029
