45
-1296.70195389
C         11.02933        2.36947        0.35222
C         10.33837        3.62884       -0.12552
C         10.99195        4.22503       -1.36137
C         10.34310        5.54952       -1.68857
C         10.43891        6.47737       -0.49336
C          9.82625        5.79678        0.72249
O         10.41869        4.54665        0.97726
O          6.99027        8.13698       -0.36572
C          6.74664        7.87885        1.00817
C          6.38341        6.40169        1.25068
O          5.49179        6.28705        2.36587
C          4.21435        6.82374        2.08843
C          4.28990        8.14430        1.30346
C          5.64528        8.78359        1.57519
O          5.80912        9.03660        2.96097
O          4.20607        7.93672       -0.10081
O          3.42805        5.94600        1.32301
C          7.60027        5.56314        1.57283
O          8.45532        5.69616        0.45199
O          9.85192        7.73459       -0.75504
O         11.01711        6.09164       -2.81461
O         10.81856        3.29172       -2.41492
O         12.36728        2.61734        0.74456
H         11.06247        1.65178       -0.46298
H         10.45063        1.94487        1.17700
H          9.29194        3.40675       -0.35380
H         12.05449        4.38940       -1.15839
H          9.28799        5.37454       -1.92527
H         11.49250        6.66447       -0.28314
H          9.99136        6.38616        1.62758
H          7.67305        8.12800        1.52753
H          5.90454        6.00746        0.35216
H          3.77010        6.99061        3.06834
H          3.48365        8.79652        1.64262
H          5.70657        9.74512        1.07011
H          5.93440        8.17949        3.38368
H          3.57695        7.21695       -0.23732
H          3.29903        5.13843        1.83006
H          7.32739        4.51951        1.73734
H          8.08463        5.94299        2.47751
H          6.13396        8.04188       -0.80496
H          8.88447        7.63558       -0.74125
H         10.71782        7.00502       -2.89322
H         11.09523        3.74336       -3.21994
H         12.32689        3.33091        1.38942
