24
-686.52981244
C         -1.92637        0.77509        0.79998
C         -0.86327       -0.06902        1.48860
C          0.41004        0.67531        1.85983
C          1.35193        0.87460        0.67485
C          1.51195       -0.42469       -0.11083
C          0.15036       -1.00657       -0.47377
O         -0.58552       -1.24719        0.72570
O          0.28732       -2.21478       -1.13060
O          2.26424       -1.39030        0.60279
O          0.78751        1.89981       -0.13039
O          1.05622       -0.13373        2.84937
O         -3.06863       -0.02031        0.53837
H         -1.54365        1.23433       -0.11117
H         -2.23596        1.57482        1.47150
H         -1.29171       -0.44949        2.41537
H          0.14488        1.65380        2.26843
H          2.33352        1.17334        1.05889
H          2.05906       -0.22654       -1.03438
H         -0.40148       -0.33766       -1.13529
H          0.96200       -2.70129       -0.63789
H          1.87344       -1.42951        1.48855
H          1.39539        2.08200       -0.85345
H          1.80902        0.35901        3.19196
H         -2.73319       -0.87062        0.23071
