24
-686.52664208
C         -1.89328        0.82382       -0.47119
C         -0.68900        0.07993        0.05343
C          0.20864        0.95241        0.93051
C          1.68578        0.63336        0.65930
C          1.85892       -0.87329        0.49285
C          1.02121       -1.34806       -0.70937
O          0.03916       -0.37702       -1.08720
O          1.87014       -1.51056       -1.79905
O          1.50623       -1.57276        1.67403
O          2.17051        1.35179       -0.45629
O         -0.16243        0.65496        2.28196
O         -2.75422       -0.01648       -1.21190
H         -1.54435        1.66956       -1.07279
H         -2.46646        1.21008        0.36951
H         -1.02370       -0.78127        0.64199
H          0.05055        2.01092        0.70940
H          2.27408        0.96183        1.51707
H          2.89896       -1.10110        0.26856
H          0.50368       -2.27409       -0.43814
H          1.34622       -1.84589       -2.53368
H          0.85276       -1.04404        2.15122
H          1.73307        0.98548       -1.23444
H          0.23802        1.31654        2.85528
H         -2.20868       -0.42341       -1.89206
