45
-1296.693204
C         -1.56863        1.06310        1.76065
C         -1.62348        1.45821        3.23137
C         -2.44626        2.69744        3.60330
C         -1.68938        4.01300        3.43295
C         -0.29289        3.91989        4.03801
C          0.41873        2.66600        3.56067
O         -0.33273        1.50300        3.84975
O          1.59238        2.57261        4.31598
C          2.59401        1.74482        3.72349
C          3.08514        0.77545        4.79151
O          4.24325        0.05391        4.34388
C          5.32126        0.87462        3.94579
C          4.87985        1.75799        2.78552
C          3.71432        2.62277        3.21630
O          3.21824        3.38216        2.12659
O          5.89175        2.63988        2.32679
O          5.77965        1.69852        4.97930
C          2.05463       -0.29094        5.10621
O          1.80810       -1.12267        3.98651
O         -0.44554        3.90000        5.45090
O         -1.62301        4.30871        2.03754
O         -2.89788        2.59798        4.94391
O         -0.85225        1.92135        0.89510
H         -2.60341        0.92595        1.42295
H         -1.06958        0.09705        1.70697
H         -2.13049        0.63209        3.73322
H         -3.33723        2.73077        2.97484
H         -2.25178        4.78575        3.95996
H          0.30481        4.78490        3.72809
H          0.64504        2.72783        2.49600
H          2.16310        1.17708        2.89570
H          3.32195        1.34232        5.69592
H          6.09462        0.17153        3.62791
H          4.54124        1.09790        1.98177
H          4.04427        3.27942        4.02633
H          3.98424        3.82535        1.74404
H          6.52871        2.13766        1.81171
H          6.15399        1.13016        5.65968
H          1.11124        0.18536        5.35824
H          2.40567       -0.87594        5.96031
H          2.66526       -1.47318        3.72331
H          0.37890        3.53319        5.79647
H         -1.13154        5.12817        1.92207
H         -2.13075        2.79746        5.49891
H         -1.18752        2.81805        1.03489
