40
-1161.24523542
O          3.28400        4.72020        9.59756
C          4.22664        3.81010        9.35661
O          5.35889        3.86251        9.78608
C          3.74522        2.66234        8.45193
O          4.80995        1.74443        8.39024
C          2.51184        1.96690        9.00031
C          1.24198        2.65407        8.55389
H          1.24920        3.71083        8.81283
O          0.16159        1.98187        9.18548
C          1.18264        2.47304        7.04729
H          1.13940        1.39582        6.88490
N         -0.02315        3.01978        6.44934
C         -0.33499        4.34947        6.45832
C         -1.58717        4.72375        5.70217
O          0.36310        5.17978        7.02643
C          2.43697        3.01983        6.34006
H          2.19279        4.00472        5.94273
O          3.56201        3.27380        7.19861
C          2.78664        2.09140        5.18238
H          1.88664        2.05889        4.55957
O          3.01600        0.75723        5.61811
C          3.91491        2.56297        4.26452
H          3.65206        3.54558        3.86660
O          3.97492        1.69252        3.14088
C          5.27969        2.68164        4.93221
O          5.61735        1.51458        5.68803
H          3.68944        5.40868       10.14593
H          5.54868        2.17409        8.85577
H          2.56871        1.92658       10.08721
H          2.51862        0.94261        8.62535
H         -0.64502        2.43286        8.91687
H         -0.62422        2.39556        5.94090
H         -2.21485        3.86902        5.46178
H         -1.29565        5.21861        4.77749
H         -2.15097        5.43639        6.29706
H          3.97072        0.70511        5.80037
H          3.95638        0.79599        3.49466
H          5.31109        3.56724        5.56398
H          6.01900        2.78204        4.13934
H          5.44434        1.70797        6.62353
