24
-686.53808302
C         -2.37136        0.91840       -0.63751
C         -1.10439        0.38733        0.01187
C          0.02064        1.41389        0.02923
C          1.26760        0.79950        0.62107
C          1.62736       -0.45726       -0.13464
C          0.42612       -1.38306       -0.15777
O         -0.67957       -0.73608       -0.75623
O          0.77835       -2.48423       -0.93144
O          2.73410       -1.03934        0.53142
O          2.29026        1.78050        0.55217
O         -0.39893        2.53948        0.78913
O         -3.04153        1.85051        0.18597
H         -3.05095        0.08450       -0.79816
H         -2.11818        1.34214       -1.61474
H         -1.33673        0.08627        1.04093
H          0.23103        1.70707       -1.00502
H          1.06579        0.53522        1.66560
H          1.87138       -0.20619       -1.17109
H          0.15939       -1.67987        0.86636
H          0.05237       -3.11498       -0.90400
H          2.95493       -1.84778        0.05709
H          3.09957        1.36450        0.86836
H          0.37824        3.09942        0.90053
H         -2.38349        2.50099        0.45835
