45
-1296.69146571
C          2.50134        0.23517        0.39380
C          2.90824       -0.48326       -0.87042
C          3.54845        0.46031       -1.89503
C          3.23683        0.01628       -3.33366
C          3.11755       -1.49298       -3.38023
C          1.95573       -1.93917       -2.47982
O          1.72184       -1.07631       -1.39745
O          1.35704       -6.89498        0.93134
C          1.00271       -5.57140        0.58518
C          1.92641       -5.02642       -0.50779
O          3.22498       -4.76362        0.01787
C          3.22150       -3.83095        1.08031
C          2.42703       -4.34807        2.26556
C          1.00557       -4.68622        1.84227
O          0.33714       -3.43943        1.64693
O          3.01445       -5.54637        2.75582
O          4.54453       -3.71375        1.51992
C          1.31467       -3.82477       -1.21435
O          2.29984       -3.24034       -2.05649
O          4.36274       -2.00815       -2.92655
O          2.00865        0.52103       -3.83199
O          4.94426        0.55332       -1.66901
O          2.07899       -0.65019        1.41575
H          1.71993        0.95988        0.14424
H          3.36392        0.77326        0.78239
H          3.63464       -1.26111       -0.62189
H          3.15397        1.47038       -1.76201
H          4.08012        0.32586       -3.95644
H          2.91145       -1.82854       -4.39812
H          1.01860       -1.95277       -3.03798
H         -0.01661       -5.61483        0.19206
H          2.08965       -5.82477       -1.22971
H          2.82622       -2.86909        0.75004
H          2.39921       -3.57356        3.03483
H          0.54006       -5.25705        2.64813
H         -0.60828       -3.61360        1.62926
H          3.96931       -5.41000        2.69326
H          5.09073       -3.54365        0.74548
H          0.96023       -3.08515       -0.50455
H          0.46463       -4.16881       -1.81346
H          2.14564       -6.81850        1.48882
H          4.16124       -2.88295       -2.56356
H          2.08079        1.47785       -3.88657
H          5.29783       -0.31325       -1.90849
H          1.29351       -1.11306        1.10490
