40
-1161.25173311
O         -5.43785        8.19421        2.99961
C         -4.69244        7.30852        2.31527
O         -4.34894        7.47606        1.16639
C         -4.33110        6.09782        3.20446
O         -5.47370        5.62668        3.83489
C         -3.71127        4.96638        2.39651
C         -2.20490        4.84523        2.64077
H         -1.76288        4.30159        1.80602
O         -1.90379        4.08786        3.78832
C         -1.53281        6.22056        2.69652
H         -0.50717        6.06301        3.02354
N         -1.44006        6.80129        1.37214
C         -0.43163        7.65546        1.07290
C         -0.47973        8.27944       -0.29586
O          0.48572        7.89403        1.86243
C         -2.26651        7.16545        3.68284
H         -2.54057        8.07180        3.12887
O         -3.44893        6.56455        4.21540
C         -1.41922        7.67089        4.85003
H         -2.09842        8.20661        5.51508
O         -0.47813        8.61728        4.38341
C         -0.70512        6.59141        5.66975
H          0.06314        6.11755        5.05784
O         -1.58295        5.55083        6.08426
C         -0.04540        7.20774        6.88666
O         -1.11465        7.65233        7.72522
H         -5.62145        8.93041        2.39754
H         -5.84839        6.36450        4.33247
H         -3.92379        5.10756        1.33826
H         -4.17560        4.03717        2.71777
H         -2.07798        4.61232        4.58949
H         -2.27203        6.82604        0.80085
H         -1.36552        7.99588       -0.85839
H          0.40901        7.97585       -0.84435
H         -0.44695        9.36040       -0.18406
H         -0.04108        8.27414        3.58030
H         -2.16303        5.93908        6.75088
H          0.59162        8.03645        6.58021
H          0.54689        6.44313        7.39159
H         -0.74258        7.94644        8.55923
