45
-1296.690154
C         -6.61963        4.37890       -3.53624
C         -7.80110        5.30596       -3.26111
C         -7.58093        6.80403       -3.48732
C         -7.01173        7.54057       -2.27337
C         -7.72014        7.12795       -0.97237
C         -7.64892        5.61967       -0.90787
O         -8.42131        5.08008       -1.99359
O         -8.17553        5.12128        0.26845
C         -7.86028        3.73199        0.42255
C         -9.00872        3.10230        1.19549
O         -8.75923        1.70923        1.37608
C         -7.59595        1.43330        2.09614
C         -6.37701        2.02034        1.39423
C         -6.55220        3.50971        1.14976
O         -5.40026        4.02566        0.47918
O         -5.25068        1.77652        2.22206
O         -7.70628        1.95680        3.40026
C        -10.32203        3.25474        0.44375
O        -10.22923        2.94294       -0.93423
O         -9.02887        7.63582       -0.91252
O         -5.61573        7.23718       -2.24297
O         -8.87450        7.31108       -3.80262
O         -5.50486        4.45726       -2.66005
H         -6.31161        4.54504       -4.57408
H         -6.98740        3.35742       -3.45873
H         -8.55789        5.02254       -3.99535
H         -6.89185        6.94227       -4.32648
H         -7.15836        8.61488       -2.42005
H         -7.17966        7.54357       -0.11967
H         -6.61777        5.31101       -1.02551
H         -7.82076        3.25336       -0.56037
H         -9.10142        3.59096        2.16926
H         -7.52659        0.34482        2.12379
H         -6.26722        1.51209        0.42967
H         -6.58236        4.03127        2.10616
H         -5.41408        3.72587       -0.44144
H         -4.55183        2.35885        1.90061
H         -6.80411        1.99136        3.74376
H        -10.68544        4.27225        0.59398
H        -11.03656        2.56000        0.88009
H         -9.80055        3.69150       -1.36859
H         -9.52918        7.18285       -1.60377
H         -5.23265        7.63267       -1.45267
H         -8.82394        8.27145       -3.84711
H         -5.23892        5.38779       -2.61150
