24
-686.53206617
C         -2.08747       -0.12996        1.51754
C         -0.67424       -0.48876        1.96172
C          0.34389        0.65387        2.05028
C          1.00269        0.99607        0.71580
C          1.46789       -0.26853        0.00294
C          0.35892       -1.30887       -0.03860
O         -0.12562       -1.60795        1.25427
O          0.95951       -2.48009       -0.52216
O          2.58208       -0.77169        0.72326
O          0.05791        1.71664       -0.07621
O          1.35117        0.33819        2.99542
O         -2.25504        0.25012        0.16658
H         -2.45386        0.64554        2.20110
H         -2.70739       -1.01348        1.65876
H         -0.77362       -0.84596        2.98796
H         -0.16383        1.54586        2.41923
H          1.87223        1.61853        0.93198
H          1.75230       -0.03013       -1.02854
H         -0.46017       -0.98205       -0.67981
H          0.33055       -3.19599       -0.38302
H          2.62489       -1.71269        0.50308
H          0.49000        1.99734       -0.88869
H          1.94302       -0.28891        2.55579
H         -1.62152        0.95801       -0.01617
