24
-686.52595051
C         -1.04210        0.24415        3.13798
C          0.02328       -0.17234        2.14740
C          1.08421        0.91091        1.93719
C          1.54055        0.90918        0.47433
C          1.62062       -0.52970       -0.01986
C          0.19267       -1.11555       -0.02819
O         -0.64890       -0.43034        0.91718
O         -0.41991       -1.02341       -1.26802
O          2.50852       -1.31415        0.75712
O          0.64858        1.66241       -0.34024
O          2.15707        0.58496        2.82768
O         -1.78782        1.34984        2.65768
H         -0.56681        0.55924        4.06498
H         -1.69144       -0.60741        3.34943
H          0.52109       -1.07891        2.50721
H          0.66702        1.89282        2.16871
H          2.51789        1.38635        0.39942
H          1.97557       -0.55030       -1.05018
H          0.23296       -2.17124        0.24138
H         -0.24061       -0.13979       -1.61009
H          2.65547       -0.86449        1.59980
H         -0.23747        1.45647       -0.01531
H          2.72790        1.35563        2.90775
H         -2.25773        1.03806        1.87774
