45
-1296.683475
C          2.88704        0.57061       -0.05290
C          2.03471       -0.15876        0.96714
C          2.31722       -1.66315        1.03524
C          1.59337       -2.48405       -0.04765
C          0.21344       -1.91281       -0.41568
C         -0.25792       -0.84288        0.54752
O          0.66623        0.19799        0.65451
O         -0.51324       -1.47623        1.78465
C         -1.33387       -0.70414        2.67391
C         -0.98779       -1.17049        4.06925
O         -1.22625       -2.57203        4.23160
C         -2.27132       -3.16658        3.48555
C         -3.36106       -2.17038        3.08784
C         -2.80200       -0.94989        2.34501
O         -3.49690        0.24784        2.69687
O         -4.35974       -2.82544        2.33120
O         -1.81977       -3.87436        2.35834
C         -1.71737       -0.37856        5.16160
O         -1.68376        1.01767        4.93378
O         -0.81319       -2.89195       -0.45202
O          2.37852       -2.67336       -1.21151
O          2.08680       -2.18360        2.33298
O          2.61002        0.14619       -1.38737
H          3.93967        0.36481        0.12855
H          2.72058        1.64428        0.04092
H          2.26070        0.24669        1.95605
H          3.38459       -1.79881        0.86144
H          1.44545       -3.47373        0.38295
H          0.31133       -1.42835       -1.39090
H         -1.17319       -0.37423        0.18100
H         -1.09457        0.35380        2.56656
H          0.08680       -1.04028        4.20521
H         -2.70633       -3.92576        4.13128
H         -3.84747       -1.81487        3.99487
H         -2.89760       -1.13997        1.27297
H         -4.43732        0.08982        2.55840
H         -3.88348       -3.45974        1.77778
H         -1.33321       -3.26450        1.78098
H         -1.21431       -0.56668        6.10721
H         -2.74046       -0.74029        5.25900
H         -2.37304        1.19960        4.28372
H         -0.53308       -3.58721       -1.05672
H          2.59937       -1.78438       -1.53090
H          1.13082       -2.15933        2.47541
H          1.73948        0.49549       -1.60387
