45
-1296.68887946
C          1.02103        6.24087        9.23021
C          1.50870        6.42793        7.80734
C          0.41304        6.92518        6.87394
C          0.89489        6.87850        5.44133
C          1.40042        5.49685        5.09304
C          2.48346        5.08017        6.07957
O          1.96792        5.13763        7.39743
O          7.30961        4.84830        4.33946
C          5.91954        4.73453        4.62307
C          5.66412        4.64495        6.13875
O          5.22678        3.34345        6.56029
C          5.98341        2.31334        5.97895
C          5.68062        2.18575        4.48400
C          5.30995        3.54610        3.87384
O          3.89550        3.57351        3.89830
O          6.70213        1.49492        3.79691
O          7.38254        2.54585        6.10414
C          4.70378        5.68130        6.69145
O          3.56037        5.95861        5.89461
O          1.91487        5.47417        3.77215
O         -0.14474        7.17179        4.51827
O         -0.01661        8.24149        7.21160
O          0.01475        5.25009        9.30910
H          0.58200        7.16902        9.58783
H          1.87593        5.98716        9.86268
H          2.34095        7.14361        7.79779
H         -0.46684        6.29308        6.98723
H          1.72309        7.58652        5.31811
H          0.57499        4.78628        5.19563
H          2.78970        4.04699        5.93562
H          5.46639        5.64816        4.23791
H          6.62008        4.85430        6.62723
H          5.71121        1.40781        6.51738
H          4.77777        1.58538        4.38953
H          5.70149        3.56412        2.85419
H          3.55052        4.42325        3.59059
H          7.53718        1.74570        4.20376
H          7.62872        2.42745        7.02663
H          5.24217        6.62689        6.74573
H          4.40652        5.38600        7.70013
H          7.75016        4.15968        4.85149
H          1.25198        5.90112        3.21714
H         -0.58083        7.97128        4.83322
H          0.75527        8.81727        7.16810
H          0.38851        4.45983        8.90486
