45
-1296.68932553
C          4.63254        3.32095        5.36640
C          3.19968        3.81622        5.35685
C          2.72944        4.35558        4.01068
C          1.29255        4.80505        4.16435
C          1.19039        5.83311        5.26570
C          1.77009        5.29481        6.56478
O          3.09138        4.83586        6.35514
O          3.17874        1.70088        9.40048
C          2.28657        2.05141        8.35134
C          1.07595        2.75836        8.97176
O         -0.15280        2.04496        8.83022
C         -0.53678        1.59857        7.54623
C          0.66279        1.23691        6.66813
C          1.83846        0.85186        7.54731
O          2.92730        0.42737        6.72516
O          0.36723        0.19976        5.74812
O         -1.26046        0.40834        7.73056
C          0.98987        4.19901        8.51027
O          0.94148        4.28994        7.08386
O         -0.13879        6.24356        5.49199
O          0.79539        5.42256        2.98754
O          2.70699        3.34810        3.00346
O          4.91664        2.47153        6.46085
H          5.30195        4.17643        5.44486
H          4.83584        2.80846        4.42086
H          2.55301        2.97171        5.60377
H          3.34456        5.20744        3.70384
H          0.68416        3.93109        4.42263
H          1.81702        6.68556        4.97985
H          1.86576        6.10858        7.28484
H          2.78537        2.74538        7.67740
H          1.23936        2.77663       10.04872
H         -1.16348        2.35634        7.06887
H          0.93104        2.10827        6.07862
H          1.54808        0.04770        8.22903
H          2.53325       -0.15267        6.05940
H         -0.28139       -0.36617        6.18726
H         -1.94923        0.58486        8.37865
H          1.88043        4.70972        8.88513
H          0.09808        4.67333        8.92389
H          4.04986        1.59880        9.00246
H         -0.50207        6.45433        4.62441
H          0.90106        4.78017        2.27741
H          3.59519        3.23900        2.65477
H          4.32972        1.70150        6.39284
