30
-819.16020407
C          0.30994       -5.46178       -2.66908
C         -0.15906       -4.40662       -1.68647
C         -0.19544       -3.02093       -2.33903
C          0.12277       -1.97991       -1.29308
C          1.55889       -2.21439       -0.89465
C          1.75658       -3.67901       -0.41341
O          0.58229       -4.43651       -0.47135
N          1.97275       -1.26285        0.11309
C          3.28544       -1.20835        0.45033
O          4.08400       -2.05544        0.04786
C          3.70384       -0.07198        1.34461
O          0.01046       -0.66237       -1.80131
O         -1.47681       -2.71997       -2.86901
O         -0.60179       -5.36267       -3.77080
H          1.33402       -5.25324       -2.97648
H          0.26737       -6.44699       -2.20383
H         -1.18413       -4.63772       -1.39440
H          0.55890       -2.95126       -3.13020
H         -0.54110       -2.11854       -0.43283
H          2.17741       -2.07754       -1.78540
H          2.01569       -3.66949        0.64570
H          1.39305       -0.45275        0.26232
H          4.26748       -0.47645        2.18085
H          4.36655        0.58273        0.78248
H          2.86058        0.50343        1.71740
H         -0.81252       -0.64453       -2.30510
H         -1.64773       -3.38958       -3.54243
H         -0.29394       -5.94263       -4.47091
O          2.75687       -4.32019       -1.16664
H          3.54834       -3.78084       -1.01131
