45
-1296.689720
C         -3.04985       18.83441       -5.38364
C         -2.68258       18.01779       -4.14956
C         -1.58093       18.64351       -3.31040
C         -0.17752       18.42724       -3.90087
C         -0.06205       17.20413       -4.80787
C         -1.12892       16.15933       -4.53222
O         -2.43758       16.65226       -4.50462
O         -0.75701       15.54425       -3.29155
C         -1.58244       14.45156       -2.91558
C         -1.35616       14.23487       -1.42210
O         -2.23111       13.20290       -0.94126
C         -1.99987       11.95082       -1.53684
C         -2.11687       12.03724       -3.04757
C         -1.24484       13.14884       -3.61982
O         -1.49300       13.25011       -5.01094
O         -1.81926       10.79785       -3.66817
O         -0.70745       11.45281       -1.26728
C         -1.64437       15.45462       -0.58297
O         -2.92418       16.01654       -0.85766
O          1.22239       16.61399       -4.75356
O          0.22047       19.54652       -4.70659
O         -1.58710       18.18198       -1.97337
O         -2.01526       19.01761       -6.32443
H         -3.45509       19.79220       -5.03602
H         -3.84347       18.30292       -5.90490
H         -3.58551       17.99708       -3.52960
H         -1.76323       19.72445       -3.30002
H          0.50381       18.30672       -3.05865
H         -0.21213       17.54282       -5.82970
H         -1.11889       15.40006       -5.30782
H         -2.62933       14.70754       -3.09521
H         -0.31558       13.94080       -1.25551
H         -2.76288       11.29111       -1.12484
H         -3.15268       12.26527       -3.29793
H         -0.18883       12.91802       -3.43515
H         -1.46493       12.34679       -5.35026
H         -1.01481       10.47646       -3.24253
H         -0.66832       11.20391       -0.33879
H         -0.92029       16.23053       -0.80849
H         -1.56344       15.17749        0.46979
H         -3.58060       15.32507       -0.72640
H          1.20859       16.04193       -3.97728
H          0.41472       20.28187       -4.11717
H         -2.31090       17.55400       -1.84173
H         -1.28773       19.49370       -5.89720
