45
-1296.696891
C          7.41834        4.41919       -2.65460
C          6.62888        3.48098       -1.76575
C          6.64221        2.06100       -2.31328
C          5.51876        1.20205       -1.71157
C          4.90228        1.84329       -0.47912
C          4.43721        3.26234       -0.80449
O          5.26106        3.93227       -1.73901
O          4.39372        3.95453        0.42171
C          3.53015        5.09063        0.41415
C          4.29197        6.29186        0.95366
O          3.43177        7.43470        0.98475
C          2.28692        7.26881        1.77679
C          1.45875        6.07806        1.32016
C          2.31168        4.82159        1.26160
O          1.58517        3.75355        0.67759
O          0.32099        5.87741        2.14145
O          2.58776        7.03250        3.13847
C          5.49739        6.63761        0.10013
O          5.21276        6.69592       -1.28994
O          5.87090        1.80725        0.54703
O          4.53265        1.03264       -2.72487
O          7.93483        1.54891       -2.03181
O          7.76601        5.64167       -2.03862
H          6.85165        4.57447       -3.57893
H          8.35157        3.91889       -2.90415
H          7.05286        3.48520       -0.76131
H          6.45604        2.10019       -3.39130
H          5.95578        0.24596       -1.41268
H          4.00869        1.28194       -0.18239
H          3.44560        3.24089       -1.25301
H          3.20570        5.30976       -0.60625
H          4.64246        6.06550        1.96576
H          1.72452        8.19473        1.66139
H          1.08540        6.28641        0.31790
H          2.63974        4.55642        2.27271
H          0.72769        3.74126        1.11935
H          0.63474        5.96683        3.04983
H          2.94877        7.84392        3.50867
H          6.28733        5.91154        0.30257
H          5.85039        7.62400        0.39260
H          5.07355        5.77529       -1.57241
H          5.58506        2.45283        1.20513
H          3.85366        0.44220       -2.38407
H          8.05813        0.75006       -2.55175
H          6.96843        6.18467       -1.96069
