24
-686.52440994
C         -1.51594       -0.17170       -1.46642
C         -1.16438       -0.02351        0.01001
C         -0.24187        1.17861        0.23677
C          1.13900        0.70560        0.64304
C          1.55620       -0.46061       -0.22928
C          0.62343       -1.63270        0.05723
O         -0.61754       -1.22271        0.57237
O          0.48046       -2.39485       -1.12614
O          2.87526       -0.87960        0.05578
O          2.09835        1.76225        0.60030
O         -0.82013        2.02364        1.21509
O         -2.30879       -1.30532       -1.72310
H         -0.60848       -0.18083       -2.07773
H         -2.10051        0.70210       -1.75414
H         -2.07839        0.13822        0.57618
H         -0.13877        1.72419       -0.71417
H          1.11301        0.38556        1.68402
H          1.46578       -0.18230       -1.28660
H          1.07594       -2.23590        0.84293
H          0.33926       -3.31045       -0.86846
H          3.37888       -0.07510        0.22785
H          2.07666        2.13744       -0.28778
H         -0.16210        2.69176        1.43711
H         -1.73873       -2.05849       -1.53557
