45
-1296.693359
C         -1.57272        1.94613        4.61039
C         -1.35100        0.74771        3.71463
C         -2.43543       -0.31146        3.85631
C         -2.04858       -1.54408        3.06767
C         -0.68828       -2.03708        3.50760
C          0.32371       -0.91024        3.39063
O         -0.08846        0.20289        4.13947
O          0.44597       -0.63276        2.01461
C          1.43649        0.34487        1.66892
C          1.15829        0.72897        0.20639
O          2.38363        0.89735       -0.49372
C          3.04698       -0.35345       -0.71352
C          3.11566       -1.17145        0.60527
C          2.85095       -0.23899        1.78253
O          3.82076        0.79003        1.85091
O          2.19893       -2.25962        0.56245
O          2.43505       -1.08983       -1.71141
C          0.39173        2.02782        0.04448
O         -0.89901        1.95673        0.63248
O         -0.23270       -3.12021        2.72449
O         -2.95344       -2.61714        3.27874
O         -3.68029        0.11922        3.31132
O         -0.52257        2.88510        4.49807
H         -1.68651        1.60203        5.64477
H         -2.48222        2.46312        4.30961
H         -1.28128        1.07475        2.67633
H         -2.54713       -0.59126        4.90938
H         -2.00682       -1.27833        2.00740
H         -0.74654       -2.31502        4.56476
H          1.28092       -1.20538        3.82129
H          1.35176        1.21159        2.32822
H          0.58246       -0.08374       -0.25011
H          4.03839       -0.05277       -1.04291
H          4.11401       -1.59578        0.69494
H          2.94529       -0.80315        2.70861
H          3.68173        1.33021        1.06196
H          1.41152       -2.04336        1.08821
H          2.02227       -1.84039       -1.25160
H          0.34290        2.27352       -1.01736
H          0.91727        2.83140        0.55733
H         -1.43503        1.36941        0.09191
H         -0.95561       -3.75710        2.69234
H         -3.82722       -2.29028        3.03845
H         -4.10283        0.71342        3.93701
H          0.28900        2.39551        4.66706
