24
-686.53197242
C         -1.46084        0.00981        2.04067
C         -0.03778       -0.52459        2.10338
C          1.05545        0.52740        1.95505
C          1.40001        0.87161        0.50204
C          1.57539       -0.41489       -0.31258
C          0.45856       -1.43214       -0.10114
O          0.17209       -1.66257        1.25398
O         -0.69650       -1.04402       -0.84281
O          2.80483       -1.04573        0.01135
O          0.50631        1.79142       -0.07375
O          2.20046       -0.03478        2.61120
O         -1.80220        0.72056        0.85986
H         -1.59836        0.70384        2.86880
H         -2.13819       -0.83433        2.18860
H          0.07904       -0.93528        3.10777
H          0.73117        1.43971        2.46366
H          2.38017        1.35483        0.50376
H          1.61164       -0.15638       -1.36825
H          0.81223       -2.39418       -0.46620
H         -1.23104       -1.83623       -0.96175
H          2.81060       -1.14353        0.97320
H         -0.39303        1.57991        0.23563
H          2.90598        0.61973        2.57190
H         -1.66029        0.09962        0.12204
