24
-686.52373630
C          6.22479        1.73601       -4.89968
C          4.88153        1.69565       -4.19433
C          4.62141        0.45590       -3.32762
C          5.82395       -0.00216       -2.50013
C          5.36361       -0.95303       -1.39457
C          6.57714       -1.56260       -0.73475
O          6.71403       -2.76619       -0.66786
O          4.53573       -1.98068       -1.89340
O          6.80805       -0.68017       -3.24166
O          4.17281       -0.56752       -4.20472
O          3.84443        1.80901       -5.15954
O          6.48970        0.55892       -5.65919
H          6.23846        2.61787       -5.54219
H          7.03750        1.81916       -4.17960
H          4.83472        2.57352       -3.54419
H          3.82002        0.71960       -2.62721
H          6.24661        0.88619       -2.00633
H          4.81812       -0.37424       -0.64006
H          7.32383       -0.86775       -0.32416
H          5.02216       -2.80212       -1.70979
H          6.70929       -0.46019       -4.18701
H          4.09112       -1.36253       -3.65440
H          3.43793        0.93396       -5.21190
H          5.69006        0.36370       -6.16085
