45
-1296.69478870
C          1.97211       11.77479       11.93371
C          2.94717       12.92970       12.00695
C          2.63198       13.98251       13.05761
C          3.67607       15.07938       12.95721
C          3.71771       15.64669       11.55687
C          3.91626       14.53473       10.53855
O          2.94527       13.54399       10.70615
O          7.93158       11.82739        7.80277
C          6.80730       12.31092        8.51655
C          7.26516       13.39069        9.50978
O          7.91427       12.81769       10.64909
C          7.19249       11.79570       11.31290
C          6.83423       10.64357       10.38912
C          6.06065       11.14465        9.17260
O          4.72501       11.47146        9.51240
O          8.02240       10.02085        9.91631
O          8.05889       11.27207       12.28236
C          6.25760       14.46076        9.89257
O          5.18155       13.90135       10.65307
O          4.75934       16.58861       11.39614
O          3.40337       16.16499       13.82686
O          2.60079       13.45548       14.37867
O          2.54515       10.61983       11.35824
H          1.08903       12.11352       11.38320
H          1.66591       11.50324       12.94167
H          3.94149       12.51509       12.21598
H          1.64021       14.40209       12.88324
H          4.65793       14.64402       13.18520
H          2.74391       16.10179       11.34597
H          3.79600       14.92049        9.52386
H          6.14221       12.77228        7.78438
H          8.06151       13.92579        8.98980
H          6.29380       12.21205       11.77389
H          6.21061        9.93638       10.94168
H          6.01571       10.33724        8.44380
H          4.74324       12.34232        9.94431
H          8.63220       10.01906       10.66624
H          8.49586       12.02167       12.70076
H          5.86723       14.92078        8.97969
H          6.74891       15.23002       10.48487
H          8.35525       11.17917        8.38509
H          4.67102       17.21688       12.12205
H          3.21383       15.78611       14.69281
H          3.40067       12.93276       14.50691
H          3.04144       10.87057       10.56653
