45
-1296.702267
C         -4.89409        3.29124        2.46401
C         -4.20399        1.97740        2.14534
C         -5.11667        0.97660        1.45818
C         -4.35601       -0.30754        1.23761
C         -3.85657       -0.84143        2.56674
C         -3.06809        0.23681        3.30674
O         -3.79955        1.42974        3.40885
O         -1.86350        0.36718        2.58869
C         -0.75565        0.98464        3.24306
C         -0.30977        0.23106        4.49786
O          0.91810        0.80344        4.97359
C          0.80620        2.15692        5.34289
C          0.31701        3.00097        4.17887
C         -0.97446        2.44410        3.59368
O         -1.30946        3.15290        2.41701
O          0.15800        4.35951        4.54751
O         -0.11271        2.35660        6.39387
C         -0.00724       -1.22930        4.24204
O          0.94193       -1.40836        3.20692
O         -3.08967       -2.02077        2.38595
O         -5.24212       -1.22534        0.61289
O         -5.55509        1.53156        0.22430
O         -5.11468        4.07558        1.30926
H         -4.24392        3.86476        3.12156
H         -5.82637        3.08676        3.00192
H         -3.32945        2.17815        1.52557
H         -5.97444        0.77334        2.10996
H         -3.50086       -0.09605        0.58653
H         -4.71584       -1.12041        3.17585
H         -2.88459       -0.06904        4.33713
H          0.04574        0.92055        2.50729
H         -1.06170        0.30911        5.28690
H          1.81054        2.45433        5.64263
H          1.07802        2.98127        3.39904
H         -1.77383        2.52839        4.33669
H         -1.24594        4.09045        2.63663
H         -0.32820        4.35290        5.38113
H          0.27575        2.01247        7.20400
H         -0.91294       -1.74503        3.93256
H          0.33799       -1.67483        5.17844
H          1.74033       -0.94747        3.48342
H         -2.24294       -1.72092        2.02845
H         -4.78560       -2.07337        0.57899
H         -5.97793        0.81527       -0.26335
H         -5.51846        3.49356        0.65463
