45
-1296.696638
C          5.87540        5.62024       -1.97175
C          4.39314        5.34024       -2.01444
C          3.98749        3.93101       -1.63662
C          2.47919        3.85362       -1.73955
C          2.00041        4.26051       -3.12442
C          2.58460        5.60989       -3.51851
O          3.98656        5.59741       -3.36073
O          1.95966        6.56456       -2.67724
C          2.46900        7.89374       -2.83436
C          2.29395        8.61850       -1.48980
O          1.58868        9.85345       -1.62760
C          2.07109       10.77236       -2.59087
C          2.45086       10.06734       -3.90164
C          1.80872        8.68654       -3.93641
O          2.07450        8.07034       -5.18419
O          2.09340       10.80981       -5.05259
O          0.99978       11.62632       -2.88789
C          3.60446        8.79447       -0.73108
O          4.63389        9.34849       -1.53276
O          0.58364        4.25621       -3.18084
O          2.09948        2.52049       -1.43531
O          4.43138        3.68186       -0.31511
O          6.13104        6.96437       -2.38617
H          6.40875        4.91623       -2.61402
H          6.24373        5.52067       -0.95542
H          3.88825        6.03335       -1.33861
H          4.43370        3.22136       -2.34269
H          2.05768        4.54591       -1.00207
H          2.34459        3.51824       -3.84443
H          2.41056        5.84944       -4.56441
H          3.52718        7.82310       -3.08362
H          1.62624        8.01074       -0.87839
H          2.91278       11.33287       -2.17881
H          3.53175        9.93520       -3.93558
H          0.73135        8.76485       -3.76145
H          1.95318        8.76997       -5.84010
H          1.32201       11.33479       -4.80294
H          0.67029       11.97926       -2.05586
H          3.90700        7.83072       -0.31638
H          3.41517        9.46999        0.10391
H          5.24563        8.62995       -1.75243
H          0.30351        5.10020       -2.80523
H          1.15161        2.46026       -1.60048
H          3.97066        2.88798       -0.02015
H          5.83335        7.01037       -3.30216
