30
-819.15351310
C         -0.64858       -4.99573        0.02287
C         -0.03815       -3.65998        0.40898
C         -0.54278       -2.47747       -0.41974
C          0.33328       -2.15639       -1.63221
C          1.81694       -2.12933       -1.25129
C          2.19569       -3.46006       -0.59591
O          1.38760       -3.74023        0.52082
N          2.11523       -1.01009       -0.39661
C          3.30898       -0.33695       -0.34203
O          3.53150        0.48031        0.53849
C          4.30542       -0.63028       -1.43989
O          0.12402       -3.08026       -2.69217
O         -0.58982       -1.36815        0.47630
O         -0.40272       -5.38251       -1.32442
H         -0.27125       -5.75386        0.71023
H         -1.72981       -4.93281        0.13682
H         -0.37030       -3.45857        1.42899
H         -1.54869       -2.71433       -0.78160
H          0.06008       -1.16356       -1.99824
H          2.38263       -2.03022       -2.17606
H          3.19470       -3.40290       -0.16907
H          1.51095       -0.86888        0.40153
H          5.18411       -0.02253       -1.25636
H          4.59041       -1.68145       -1.45283
H          3.89420       -0.38217       -2.41757
H         -0.29446       -3.88445       -2.32353
H         -0.92399       -0.60515       -0.00750
H          0.55782       -5.51784       -1.38006
O          2.20284       -4.50941       -1.55168
H          1.75918       -4.16395       -2.34074
