40
-1161.24944808
O         -3.55620        2.75775        7.18515
C         -3.27782        1.45613        7.02919
O         -4.10721        0.59946        6.83013
C         -1.78262        1.15023        7.15418
O         -1.57882       -0.16564        6.73084
C         -0.90784        2.06740        6.29728
C         -0.49807        3.34987        6.99712
H         -1.34246        4.03782        7.01223
O          0.56801        3.91808        6.24262
C         -0.05960        3.12317        8.46258
H          0.98236        3.41800        8.53655
N         -0.79957        3.99356        9.35724
C         -0.66238        5.33247        9.22299
C         -1.46109        6.19209       10.16547
O          0.09542        5.81388        8.37706
C         -0.23058        1.68717        8.91714
H         -0.23302        1.65779       10.00602
O         -1.55937        1.27141        8.55130
C          0.81210        0.65828        8.47193
H          0.84294        0.54679        7.39173
O          0.46319       -0.58443        9.07663
C          2.23969        0.92830        8.92758
H          2.75853       -0.01450        8.73208
O          2.30997        1.24779       10.31203
C          2.98710        2.03897        8.18708
O          2.70931        2.04871        6.80012
H         -4.51859        2.84426        7.10987
H         -2.44334       -0.60212        6.78332
H         -1.43822        2.30381        5.37600
H         -0.01787        1.51451        6.00826
H          0.71432        4.78244        6.66153
H         -1.51106        3.60903        9.95567
H         -2.12135        5.61545       10.80827
H         -2.04435        6.90006        9.58226
H         -0.76899        6.76110       10.78203
H         -0.38532       -0.83841        8.69513
H          2.00667        0.46823       10.78943
H          4.05358        1.85988        8.31629
H          2.77768        2.99746        8.66363
H          2.07219        2.75236        6.59968
