45
-1296.688969
C          2.56588       15.51985       -1.27816
C          3.63193       14.49441       -0.95081
C          4.05935       13.69178       -2.17494
C          4.92581       12.52078       -1.76168
C          4.22275       11.70906       -0.70082
C          3.88281       12.61157        0.48003
O          3.03784       13.63652        0.03380
O          5.01790       13.20259        1.06386
C          5.68162       12.40674        2.04414
C          5.82591       13.24334        3.30938
O          6.71333       12.55307        4.18211
C          8.04490       12.53008        3.74347
C          8.20326       12.58866        2.22065
C          7.04331       11.89196        1.53604
O          7.20214       10.50368        1.76259
O          8.21664       13.92037        1.73651
O          8.76620       13.63837        4.24860
C          4.50544       13.39924        4.02721
O          4.55292       14.33544        5.09127
O          5.02297       10.61813       -0.26346
O          5.19030       11.63717       -2.84129
O          4.74242       14.50351       -3.12467
O          1.37888       14.90956       -1.74840
H          2.92429       16.16920       -2.07299
H          2.37518       16.12286       -0.38722
H          4.50525       14.99603       -0.51913
H          3.17183       13.32390       -2.68855
H          5.86398       12.90424       -1.34360
H          3.27804       11.33827       -1.11023
H          3.31769       12.05535        1.23224
H          5.07678       11.52649        2.28249
H          6.22181       14.22573        3.04093
H          8.45464       11.59739        4.12779
H          9.12846       12.07135        1.95731
H          7.10505       12.13160        0.47355
H          6.50077       10.08198        1.25198
H          8.67013       14.43827        2.41410
H          8.57070       13.69170        5.18982
H          4.24049       12.44393        4.47782
H          3.74013       13.66728        3.29352
H          4.68964       15.20462        4.70584
H          5.34478       10.19692       -1.07072
H          5.49911       12.17687       -3.57757
H          5.50261       14.89450       -2.67863
H          1.09995       14.29845       -1.05895
