45
-1296.69447499
C          7.45065       11.34597        8.93705
C          7.18435       10.01589        8.26770
C          8.44149        9.18170        8.10732
C          8.10520        7.93525        7.32250
C          7.50936        8.31287        5.98042
C          6.30981        9.22871        6.18183
O          6.64077       10.33844        6.97739
O          3.99180        9.09259       10.54722
C          3.80365        8.49407        9.27807
C          3.70247        9.55564        8.18451
O          2.44077       10.22219        8.21247
C          1.30889        9.36763        8.10322
C          1.29074        8.37223        9.25541
C          2.58487        7.57006        9.30319
O          2.53588        6.70706        8.17102
O          1.12165        9.15574       10.43751
O          0.17907       10.16574        8.10917
C          4.00661        9.04850        6.77649
O          5.29497        8.42400        6.73189
O          7.16800        7.15834        5.23117
O          9.30452        7.19402        7.16243
O          8.92125        8.86718        9.40111
O          6.27354       12.12777        9.03125
H          8.23212       11.87143        8.37913
H          7.80233       11.17073        9.94952
H          6.45236        9.45531        8.85429
H          9.18553        9.75774        7.54367
H          7.37181        7.35520        7.89418
H          8.26042        8.85061        5.40236
H          5.97328        9.65201        5.23292
H          4.69497        7.89113        9.09353
H          4.42553       10.32900        8.43714
H          1.31154        8.83065        7.15503
H          0.44817        7.69445        9.10714
H          2.61724        6.99639       10.23475
H          3.32938        6.16316        8.18109
H          0.84687        8.57164       11.14994
H          0.10514       10.51072        9.00773
H          3.97454        9.89626        6.08937
H          3.28715        8.30029        6.45759
H          3.20076        9.62035       10.71656
H          6.31169        6.87482        5.57513
H          9.10804        6.48284        6.54206
H          9.59457        8.18779        9.28161
H          5.96159       12.25559        8.13003
