24
-686.53463092
C         -2.45690        0.92001       -0.54736
C         -1.13885        0.46975        0.02385
C         -0.04464        1.51113       -0.17327
C          1.26335        0.96279        0.35464
C          1.57638       -0.37176       -0.27759
C          0.39504       -1.29870       -0.07053
O         -0.76311       -0.73252       -0.64267
O          0.68842       -2.48985       -0.72881
O          2.75551       -0.85675        0.34247
O          2.26403        1.93264        0.08504
O         -0.41094        2.68977        0.52127
O         -3.45733        0.01833       -0.09454
H         -2.37812        0.91499       -1.63783
H         -2.64701        1.93781       -0.20432
H         -1.26779        0.28427        1.09721
H          0.06669        1.70785       -1.24569
H          1.16114        0.81789        1.43673
H          1.71429       -0.24808       -1.35571
H          0.22770       -1.46484        1.00316
H         -0.04429       -3.09618       -0.58160
H          2.93813       -1.72125       -0.04033
H          3.10296        1.55095        0.36547
H          0.38054        3.23946        0.55022
H         -4.29672        0.30149       -0.46382
