24
-686.52200210
C         -0.65163        1.49710       -1.94293
C         -0.65625        0.59611       -0.72026
C          0.08551        1.18217        0.48097
C          1.59893        0.93932        0.45496
C          1.93335       -0.49070       -0.00643
C          0.69001       -1.32455       -0.25466
O         -0.11257       -0.64033       -1.19081
O          1.01379       -2.53062       -0.88275
O          2.72377       -1.22237        0.92432
O          2.28691        1.92446       -0.28798
O         -0.50257        0.57444        1.63039
O          0.65105        1.58411       -2.51594
H         -0.95382        2.50794       -1.68022
H         -1.35433        1.09923       -2.67601
H         -1.69017        0.44090       -0.39693
H         -0.07972        2.26317        0.49311
H          1.95480        1.03855        1.48245
H          2.44452       -0.41749       -0.97070
H          0.13587       -1.49657        0.67093
H          1.75620       -2.89076       -0.38359
H          3.59877       -0.82431        0.94811
H          1.87370        1.94605       -1.16882
H         -0.04306        0.90642        2.40796
H          0.87932        0.67324       -2.74277
