45
-1296.696723
C         -7.93738       -6.51884        2.66932
C         -9.32566       -6.64379        3.26133
C         -9.42403       -6.18032        4.72650
C         -9.48482       -7.36980        5.67679
C        -10.67212       -8.25998        5.31061
C        -10.75235       -8.51706        3.78183
O         -9.64641       -8.03240        3.07925
O        -11.96698       -7.92597        3.33266
C        -12.28862       -8.18565        1.96910
C        -13.14875       -7.01112        1.51338
O        -13.56762       -7.19436        0.15318
C        -14.31602       -8.36206       -0.07063
C        -13.54550       -9.59568        0.36566
C        -13.08247       -9.46458        1.80877
O        -12.27757      -10.57915        2.15457
O        -14.30428      -10.77991        0.18962
O        -15.52800       -8.37894        0.65121
C        -12.40970       -5.69123        1.53208
O        -11.26483       -5.71559        0.69437
O        -11.84755       -7.62373        5.81572
O         -8.29119       -8.12027        5.70856
O        -10.54849       -5.32925        4.91337
O         -7.01546       -7.41246        3.29459
H         -7.55792       -5.51195        2.82587
H         -7.98448       -6.71297        1.59716
H        -10.00285       -6.02711        2.67145
H         -8.53718       -5.58866        4.96344
H         -9.68285       -6.98623        6.67999
H        -10.53129       -9.22045        5.80706
H        -10.76601       -9.57985        3.56078
H        -11.37254       -8.22626        1.37624
H        -14.02410       -6.94067        2.16604
H        -14.50340       -8.38035       -1.14384
H        -12.66552       -9.69468       -0.26931
H        -13.95932       -9.40938        2.46440
H        -12.75533      -11.35765        1.84236
H        -15.18460      -10.58302        0.53322
H        -16.11868       -7.72554        0.26396
H        -12.06354       -5.47998        2.54119
H        -13.10192       -4.90297        1.22719
H        -11.57795       -5.93348       -0.18962
H        -12.52811       -7.76256        5.14378
H         -7.72348       -7.82905        4.97741
H        -11.24752       -5.88060        5.29650
H         -7.30119       -8.29635        3.03627
