45
-1296.694416
C          4.73779        9.09177       -2.35115
C          5.15849        8.68770       -0.94840
C          6.63674        8.92522       -0.68283
C          6.97671        8.44866        0.70800
C          6.63250        6.97671        0.82692
C          5.17532        6.75902        0.44370
O          4.87625        7.28935       -0.82848
O          4.41970        7.34570        1.46828
C          3.10747        6.81660        1.63209
C          2.05804        7.59518        0.81182
O          1.06432        8.21947        1.62535
C          0.41769        7.45818        2.63050
C          1.33958        6.40366        3.25270
C          2.77690        6.86866        3.10077
O          3.66474        6.00578        3.78470
O          1.02876        6.15370        4.61113
O          0.10100        8.35492        3.66449
C          1.44500        6.76306       -0.29250
O          0.81158        5.63300        0.30271
O          6.90423        6.48310        2.12407
O          8.36360        8.67694        0.90760
O          6.90246       10.31405       -0.83430
O          4.66765       10.49435       -2.50305
H          3.73956        8.69971       -2.53851
H          5.41997        8.63445       -3.07540
H          4.57314        9.26202       -0.22460
H          7.21977        8.34535       -1.40777
H          6.38642        9.02014        1.43166
H          7.26141        6.41675        0.13415
H          4.94771        5.69341        0.37208
H          3.11418        5.76445        1.33354
H          2.57193        8.43219        0.34199
H         -0.48854        7.00930        2.22101
H          1.22092        5.45992        2.72430
H          2.87565        7.89731        3.46271
H          3.21889        5.78566        4.61304
H          0.70395        6.99060        4.96783
H         -0.39722        9.08146        3.27831
H          2.24377        6.46114       -0.97533
H          0.72158        7.37640       -0.83336
H          0.43708        5.09297       -0.39781
H          6.11629        6.66618        2.65619
H          8.59290        8.25599        1.74406
H          7.78691       10.46246       -0.47951
H          5.50291       10.84806       -2.17410
