45
-1296.69008164
C          3.53184        0.97676        1.36919
C          2.28419        0.66265        0.56780
C          2.61784        0.20008       -0.85181
C          1.45181        0.53008       -1.75934
C          1.26434        2.03757       -1.85534
C          1.68186        2.65983       -0.52007
O          1.38971        1.79002        0.55782
O          1.90612        3.87140        3.64086
C          2.55854        4.90037        2.91337
C          2.49410        4.54406        1.43538
O          3.15434        5.54088        0.66051
C          4.52376        5.62321        0.93071
C          4.75914        5.96291        2.40215
C          4.02107        4.98749        3.29661
O          4.20077        5.31143        4.67662
O          6.15837        5.90447        2.62483
O          5.14012        4.39943        0.60441
C          1.07321        4.42424        0.94277
O          0.96813        3.84320       -0.35901
O         -0.08802        2.28578       -2.17876
O          1.72879       -0.07483       -3.01693
O          2.85810       -1.19231       -0.79677
O          3.25480        1.28634        2.72192
H          4.08829        1.78738        0.88291
H          4.16953        0.09359        1.36916
H          1.72981       -0.13837        1.05435
H          3.51156        0.71702       -1.22680
H          0.54156        0.11124       -1.32343
H          1.92716        2.42529       -2.63604
H          2.76008        2.86367       -0.54223
H          2.06510        5.86722        3.08214
H          3.01100        3.59291        1.32258
H          4.89742        6.42519        0.29305
H          4.37950        6.97676        2.57545
H          4.45562        3.99305        3.18475
H          3.81382        6.18231        4.82552
H          6.28948        5.82737        3.57707
H          5.98393        4.39298        1.07613
H          0.63564        5.41630        0.84949
H          0.50285        3.83401        1.65720
H          2.26945        3.88476        4.53496
H         -0.29426        3.15422       -1.81116
H          0.93550       -0.00037       -3.55591
H          2.82317       -1.49783       -1.71141
H          2.57605        1.97355        2.74739
