45
-1296.709265
C         -0.81306       -4.03964        1.96224
C         -0.96466       -2.63864        2.52971
C         -2.19066       -2.49438        3.41778
C         -2.31495       -1.06221        3.87434
C         -2.39732       -0.15559        2.66193
C         -1.19771       -0.40677        1.75498
O         -1.09823       -1.76162        1.40510
O         -0.03526        0.01601        2.45010
C          0.68832        1.09269        1.87780
C          1.89110        0.57328        1.09808
O          2.67996        1.67454        0.61887
C          3.16047        2.52671        1.62756
C          2.02336        3.09347        2.46351
C          1.15769        1.97273        3.00993
O          0.01395        2.50543        3.66258
O          2.49910        3.92105        3.51053
O          4.01878        1.86946        2.53359
C          1.49035       -0.20771       -0.13462
O          0.68335        0.56414       -1.00952
O         -2.51116        1.20191        3.03561
O         -3.48454       -0.96806        4.67475
O         -2.05616       -3.38088        4.52303
O         -0.38717       -4.96691        2.94038
H         -0.04981       -4.01739        1.18711
H         -1.75766       -4.34056        1.49725
H         -0.06778       -2.38820        3.10201
H         -3.07836       -2.75332        2.82915
H         -1.42864       -0.80074        4.46238
H         -3.30376       -0.39931        2.10632
H         -1.29224        0.13919        0.81640
H          0.04639        1.67675        1.21334
H          2.48979       -0.06362        1.75509
H          3.68648        3.32300        1.10167
H          1.40792        3.72569        1.82409
H          1.74245        1.36434        3.70747
H          0.32789        3.19816        4.25596
H          3.23592        3.44321        3.91122
H          4.83752        1.65781        2.07450
H          0.89922       -1.07185        0.15927
H          2.39606       -0.55590       -0.63642
H          1.20658        1.33238       -1.25964
H         -1.64764        1.50311        3.36391
H         -3.65441       -0.02650        4.79517
H         -2.75643       -3.14904        5.14405
H         -0.97128       -4.85160        3.69950
