24
-686.52375957
C          2.77385       -9.80601        3.78806
C          4.03779       -9.40713        3.04333
C          3.89002       -8.25053        2.05860
C          3.50807       -6.88927        2.64894
C          3.72025       -5.78704        1.61309
C          3.19171       -4.49140        2.18088
O          2.35697       -3.83971        1.58918
O          3.07273       -6.06157        0.38998
O          2.16613       -6.77976        3.06163
O          2.96939       -8.70271        1.08208
O          4.48953      -10.54263        2.31860
O          2.48353       -8.81466        4.78726
H          1.94609       -9.90404        3.08480
H          2.96984      -10.76809        4.25816
H          4.81069       -9.16238        3.77311
H          4.88706       -8.12534        1.61393
H          4.20143       -6.68593        3.47780
H          4.79582       -5.67356        1.43868
H          3.59821       -4.17341        3.15201
H          2.40558       -5.36126        0.29790
H          2.05274       -7.41878        3.78641
H          2.75086       -7.93116        0.53804
H          3.98853      -10.53344        1.49308
H          1.78997       -9.15860        5.35647
