40
-1161.25369459
O          3.01073        5.79642        0.08436
C          2.08630        4.90922        0.48405
O          1.29737        5.11129        1.37749
C          2.14722        3.57193       -0.26812
O          0.94967        2.91985       -0.05951
C          2.39691        3.63887       -1.76007
C          3.84262        3.87767       -2.17133
H          4.15437        4.89015       -1.90233
O          3.92630        3.73833       -3.57486
C          4.74979        2.90107       -1.43090
H          4.48849        1.88964       -1.74960
N          6.14610        3.13839       -1.74551
C          6.72836        2.53346       -2.80820
C          8.23038        2.60339       -2.86414
O          6.06633        1.94532       -3.66524
C          4.52124        3.05533        0.07208
H          4.76858        4.08795        0.34412
O          3.15483        2.78195        0.39539
C          5.34447        2.18212        1.02956
H          4.96494        2.41630        2.02720
O          6.70756        2.60054        0.98562
C          5.32150        0.65824        0.88129
H          5.87436        0.29013        1.74945
O          6.07918        0.26889       -0.25990
C          3.96494       -0.02641        0.88093
O          3.30507        0.10630       -0.36753
H          2.89981        6.58044        0.64518
H          0.60560        3.23441        0.78991
H          1.75112        4.39275       -2.20868
H          2.09030        2.67103       -2.16060
H          4.56083        3.02771       -3.77262
H          6.73394        3.50378       -1.01384
H          8.64070        3.35451       -2.19351
H          8.53607        2.81454       -3.88440
H          8.62534        1.62642       -2.58900
H          7.14483        1.93656        0.43431
H          5.43916        0.13891       -0.97335
H          3.35333        0.34920        1.70299
H          4.12982       -1.09187        1.02906
H          2.85393        0.96016       -0.32774
