45
-1296.709515
C          2.03608        0.10923        3.71467
C          2.20234        0.54236        5.15358
C          1.60572       -0.44092        6.15441
C          1.74895        0.13211        7.54563
C          1.07307        1.48164        7.59239
C          1.66712        2.39814        6.53141
O          1.52458        1.80026        5.26074
O          3.01184        2.63186        6.83966
C          3.44832        3.98508        6.72199
C          4.84811        3.98760        6.12574
O          5.35409        5.32613        6.09474
C          5.44019        5.95241        7.34558
C          4.07550        5.99669        8.02092
C          3.48371        4.60783        8.10127
O          2.19880        4.74640        8.68348
O          4.26710        6.54012        9.31804
O          6.36776        5.26572        8.14859
C          4.86434        3.52532        4.68400
O          4.08509        4.36557        3.85167
O          1.21677        2.09638        8.86345
O          1.11419       -0.66947        8.53125
O          2.29697       -1.68550        6.15114
O          0.67879       -0.12955        3.38243
H          2.56992       -0.82441        3.54944
H          2.47567        0.87317        3.06948
H          3.26711        0.66526        5.37264
H          0.54633       -0.58437        5.93271
H          2.81233        0.25119        7.77515
H          0.01307        1.34633        7.35905
H          1.11414        3.33543        6.48004
H          2.77785        4.54178        6.06286
H          5.50042        3.34923        6.72731
H          5.79120        6.96274        7.13061
H          3.41188        6.63212        7.42720
H          4.12443        3.98426        8.73247
H          1.87764        3.85703        8.90625
H          3.45629        6.34623        9.80414
H          6.15384        5.51149        9.05857
H          4.43122        2.53034        4.62010
H          5.90133        3.48190        4.34284
H          4.43673        5.25432        3.97026
H          1.03401        1.41422        9.52054
H          1.49718       -1.55030        8.45517
H          1.92671       -2.22731        5.44862
H          0.21465        0.70122        3.52800
