24
-686.52656944
C         -0.48334       -0.89206        3.42514
C          0.49196       -0.66728        2.29089
C          0.36500        0.71999        1.68275
C          1.37223        0.89283        0.55771
C          1.68049       -0.43298       -0.13526
C          0.46537       -1.34526       -0.04392
O          0.15676       -1.65342        1.30194
O         -0.62402       -0.78026       -0.72767
O          2.80902       -0.98937        0.51737
O          0.86572        1.77214       -0.44834
O          0.59610        1.76267        2.62095
O         -1.81250       -0.57886        3.04478
H         -0.23134       -0.24761        4.26485
H         -0.39717       -1.92994        3.75448
H          1.51339       -0.82426        2.64594
H         -0.63939        0.80579        1.26654
H          2.30494        1.27100        0.98097
H          1.88940       -0.22466       -1.18686
H          0.65427       -2.31455       -0.50609
H         -0.47058        0.16857       -0.83240
H          2.91206       -1.89676        0.21471
H          0.63721        2.59866       -0.00889
H         -0.20152        1.84919        3.15255
H         -1.98926       -1.09693        2.25067
