24
-686.52436241
C          5.72089        2.72962        0.26989
C          4.34913        3.36119        0.38707
C          4.37010        4.55769        1.33419
C          2.99862        4.96442        1.88365
C          1.95304        5.23299        0.79545
C          0.74328        5.87223        1.42842
O         -0.36518        5.39636        1.28977
O          1.53687        4.06612        0.11465
O          2.52217        4.05837        2.85457
O          4.93380        5.62969        0.58141
O          3.46459        2.33844        0.85219
O          6.13088        2.15487        1.49964
H          5.69655        1.98004       -0.52427
H          6.45452        3.49009        0.01378
H          4.03253        3.71693       -0.59677
H          4.99234        4.30588        2.19602
H          3.15000        5.92015        2.39578
H          2.38941        5.95045        0.09001
H          0.91255        6.78307        2.02129
H          0.57347        4.03708        0.25103
H          2.70637        3.17602        2.50277
H          5.39139        6.21545        1.19007
H          2.59060        2.60805        0.52416
H          5.44858        1.51821        1.73664
