30
-819.15460581
C          0.55662       -1.51348       -6.02146
C          1.78240       -1.06480       -5.22865
C          1.51380       -0.83633       -3.73839
C          1.52799       -2.12499       -2.91431
C          1.72311       -1.88819       -1.39575
C          2.17313       -3.20213       -0.79395
O          2.29678        0.12021       -5.80957
N          0.54372       -1.47566       -0.68120
C          0.19448       -0.18581       -0.48524
O          0.73137        0.74185       -1.09820
C         -0.90606        0.05608        0.51185
O          0.37281       -2.90488       -3.12700
O          0.25433       -0.18367       -3.58403
O         -0.31938       -0.41412       -6.24549
H          0.87934       -1.84454       -7.00592
H          0.05452       -2.33995       -5.51956
H          2.56004       -1.82720       -5.31324
H          2.31633       -0.18636       -3.38182
H          2.38090       -2.72211       -3.24879
H          2.52291       -1.15280       -1.25995
H          3.09104       -3.62484       -1.23301
H          0.14787       -2.18948       -0.08551
H         -1.69558        0.62461        0.02703
H         -1.31658       -0.86130        0.92462
H         -0.50639        0.66800        1.31751
H         -0.35982       -2.27426       -3.09847
H          0.33391        0.36471       -2.78114
H         -0.56343       -0.09941       -5.36483
O          1.56989       -3.77866        0.08453
H          1.52263        0.57259       -6.17192
