30
-819.16340722
C         -0.00506       -5.37765       -3.29500
C          0.31937       -4.28186       -2.30675
C         -0.12511       -2.91047       -2.79415
C          0.16669       -1.88754       -1.72136
C          1.65238       -1.95238       -1.39623
C          2.08896       -3.38335       -1.04001
O          1.73062       -4.24239       -2.10760
N          2.05985       -0.94445       -0.42381
C          1.45810       -0.75369        0.77686
O          0.71904       -1.59213        1.29577
C          1.74191        0.56533        1.44452
O         -0.10738       -0.56806       -2.16838
O         -1.52056       -2.84843       -3.06745
O          0.18760       -4.88471       -4.62140
H          0.64705       -6.22587       -3.08518
H         -1.04353       -5.68332       -3.15205
H         -0.17524       -4.51787       -1.36102
H          0.45134       -2.65775       -3.68609
H         -0.43319       -2.12007       -0.83801
H          2.18512       -1.70262       -2.31399
H          3.17917       -3.43068       -1.01691
H          2.53222       -0.14182       -0.80261
H          1.79260        0.41236        2.51765
H          2.66274        1.02290        1.09155
H          0.91220        1.23819        1.23244
H         -1.00111       -0.59876       -2.52924
H         -1.64588       -3.26457       -3.92683
H          0.17001       -5.63468       -5.22035
O          1.56099       -3.85813        0.15550
H          1.14433       -3.11674        0.64063
