24
-686.52994341
C         -1.81519        0.92551        0.60795
C         -0.82906       -0.00019        1.30862
C          0.46886        0.64982        1.77065
C          1.45803        0.86541        0.62691
C          1.59036       -0.39583       -0.21722
C          0.22313       -0.92493       -0.63766
O         -0.58210       -1.16441        0.52465
O          0.34735       -2.12657       -1.30502
O          2.30200       -1.41827        0.45832
O          1.01123        1.89034       -0.25021
O          1.15577       -0.19477        2.69967
O         -3.00505        0.21529        0.31637
H         -1.37903        1.36172       -0.28996
H         -2.08589        1.73899        1.28041
H         -1.34649       -0.38172        2.19405
H          0.24083        1.61500        2.23691
H          2.43610        1.09880        1.05369
H          2.15308       -0.15187       -1.11681
H         -0.27877       -0.22604       -1.30757
H          1.01559       -2.62222       -0.81134
H          1.98018       -1.41321        1.37137
H          1.11354        2.73576        0.19594
H          0.51119       -0.53325        3.32929
H         -2.72436       -0.63268       -0.04740
