30
-819.14662166
C          0.68995       -4.44109       -3.08520
C          0.13422       -4.45581       -1.64872
C         -0.78032       -3.29414       -1.28142
C         -0.00939       -1.96017       -1.25859
C          1.50455       -2.15664       -1.35054
C          2.03818       -3.39750       -0.60818
O          1.14685       -4.49797       -0.63972
N          2.14902       -0.94085       -0.88154
C          3.39485       -0.58020       -1.27542
O          4.14659       -1.35650       -1.86728
C          3.80901        0.82990       -0.95022
O         -0.42859       -1.04800       -2.25817
O         -1.34841       -3.57150       -0.00941
O          0.16443       -3.37335       -3.88920
H          1.76780       -4.31654       -3.04918
H          0.48619       -5.39605       -3.56702
H         -0.42581       -5.37500       -1.48312
H         -1.61155       -3.19023       -1.97540
H         -0.26018       -1.49136       -0.30591
H          1.76031       -2.27735       -2.40533
H          2.16069       -3.15583        0.45240
H          1.54506       -0.21337       -0.53502
H          4.81702        0.81312       -0.54669
H          3.82772        1.40199       -1.87600
H          3.13879        1.31572       -0.24596
H         -0.24896       -1.49825       -3.09527
H         -0.64195       -3.98016        0.50681
H         -0.62781       -3.69338       -4.32725
O          3.24909       -3.82893       -1.15721
H          3.72170       -3.03407       -1.47795
