45
-1296.693818
C          7.53921        1.36672        2.82651
C          6.30215        0.75637        2.19490
C          6.47607       -0.70961        1.82240
C          5.21480       -1.20208        1.14183
C          4.90244       -0.34495       -0.06212
C          4.82237        1.11909        0.33289
O          5.99520        1.52506        1.01127
O          3.67659        1.31679        1.11008
C          3.31181        2.69617        1.27197
C          3.77182        3.26325        2.63110
O          2.65038        3.62216        3.43591
C          1.76306        2.53181        3.67157
C          1.14806        2.02123        2.32580
C          1.78977        2.76944        1.15960
O          1.35867        4.11410        1.09633
O          1.30136        0.61092        2.20119
O          2.41230        1.50011        4.33538
C          4.59754        4.52822        2.47411
O          5.88422        4.25923        1.92286
O          3.68239       -0.70529       -0.67177
O          5.34548       -2.53011        0.66752
O          6.77022       -1.52298        2.95138
O          7.26104        2.48999        3.63081
H          8.25127        1.59428        2.02654
H          7.98901        0.62028        3.47730
H          5.47192        0.83593        2.90618
H          7.32426       -0.82785        1.14604
H          4.38294       -1.12986        1.85491
H          5.73678       -0.43761       -0.76538
H          4.77908        1.74977       -0.55802
H          3.74103        3.27555        0.44861
H          4.36182        2.51329        3.15559
H          1.00131        2.97495        4.31044
H          0.08082        2.23267        2.32067
H          1.48556        2.29466        0.22756
H          1.59180        4.50171        1.95043
H          2.06048        0.45351        1.61947
H          2.19851        0.70788        3.81283
H          4.75366        4.97183        3.45438
H          4.05954        5.24455        1.84778
H          5.82124        3.50468        1.32008
H          3.72545       -1.65711       -0.82005
H          5.70298       -3.05261        1.39457
H          6.12049       -1.32557        3.63624
H          6.92300        3.20232        3.06429
