45
-1296.691178
C          4.14569       10.60274        1.11580
C          5.25707        9.69671        0.63493
C          6.57358        9.96489        1.34012
C          7.64599        9.09541        0.72326
C          7.73333        9.36083       -0.76851
C          6.36465        9.19630       -1.41641
O          5.39666        9.97130       -0.77097
O          6.08176        7.80799       -1.39068
C          4.95508        7.40254       -2.18958
C          3.69710        7.32335       -1.34533
O          3.82350        6.37669       -0.27409
C          4.69789        5.29101       -0.45163
C          4.85300        4.87580       -1.91326
C          5.29231        6.04785       -2.80417
O          4.63770        6.01967       -4.07361
O          5.74516        3.78300       -2.01199
O          5.97565        5.52923        0.11029
C          2.45130        6.99167       -2.17579
O          2.35708        7.78529       -3.34541
O          8.71784        8.54780       -1.38348
O          8.86785        9.40654        1.37153
O          6.39663        9.67768        2.71293
O          2.93661       10.36558        0.41535
H          4.46601       11.64376        1.01223
H          3.95358       10.40060        2.16538
H          4.96950        8.65180        0.78302
H          6.85195       11.01553        1.19168
H          7.37974        8.04678        0.90181
H          8.05063       10.39270       -0.91714
H          6.37304        9.53871       -2.45298
H          4.81121        8.12901       -2.99018
H          3.53832        8.28421       -0.86296
H          4.28530        4.46118        0.11718
H          3.88945        4.51892       -2.27407
H          6.37461        5.99081       -2.93859
H          4.79133        5.15084       -4.46073
H          6.44518        3.96604       -1.37133
H          6.23526        6.41044       -0.20116
H          1.57806        7.20561       -1.56375
H          2.43274        5.92921       -2.41671
H          2.91538        7.35583       -4.00392
H          8.31670        7.67834       -1.49875
H          9.56329        8.93102        0.90339
H          7.27781        9.65623        3.10328
H          3.10398       10.59015       -0.50521
