30
-819.15505043
C          0.69550       -4.80008       -3.18647
C         -0.02795       -4.29453       -1.95103
C         -0.40617       -2.81302       -2.05566
C          0.14309       -2.02298       -0.88902
C          1.62462       -2.34273       -0.77522
C          1.77649       -3.81263       -0.38393
O          0.68034       -4.60417       -0.73528
N          2.28060       -1.46378        0.16254
C          3.53940       -0.91105        0.02230
O          4.10131       -0.41133        0.98291
C          4.13807       -0.93177       -1.36030
O         -0.07738       -0.65548       -1.17933
O         -1.82142       -2.73733       -2.12707
O          1.86645       -4.06859       -3.50226
H          0.91307       -5.86334       -3.05729
H          0.01999       -4.69103       -4.03462
H         -0.95860       -4.85166       -1.85096
H          0.04434       -2.38604       -2.95664
H         -0.38201       -2.31582        0.02759
H          2.06805       -2.19297       -1.75746
H          1.83966       -3.90122        0.70241
H          1.99979       -1.52942        1.13274
H          5.05872       -0.36024       -1.32866
H          4.35411       -1.95524       -1.66269
H          3.46062       -0.49796       -2.09376
H          0.48156       -0.14776       -0.57876
H         -2.04113       -1.80257       -2.20855
H          2.50741       -4.25718       -2.80243
O          2.99584       -4.26831       -0.95584
H          3.19933       -5.12527       -0.56450
