24
-686.52435852
C         -1.72528        1.95104        0.27946
C         -0.90904        0.75962        0.74348
C          0.37760        1.10239        1.51858
C          1.60277        0.97246        0.61384
C          1.70045       -0.41443       -0.05113
C          0.31183       -1.03828       -0.22483
O         -0.65046       -0.03481       -0.42739
O          0.03433       -1.81716        0.93098
O          2.60883       -1.29758        0.56986
O          1.61955        2.00600       -0.35907
O          0.51606        0.31272        2.69166
O         -1.04034        2.83395       -0.59428
H         -2.09753        2.47402        1.16390
H         -2.57847        1.57931       -0.28354
H         -1.54953        0.19273        1.42570
H          0.32807        2.13446        1.86879
H          2.49478        1.10422        1.22161
H          2.09358       -0.22583       -1.04888
H          0.26770       -1.66819       -1.11082
H         -0.72906       -2.37285        0.74608
H          2.13992       -1.73404        1.28764
H          0.81381        1.92455       -0.88829
H          0.29453       -0.59248        2.43996
H         -0.40940        3.34360       -0.07580
