45
-1296.683259
C          7.10035       -0.66459        0.39249
C          6.26192        0.39499        1.09243
C          6.78222        0.68444        2.49284
C          6.36504       -0.38117        3.52244
C          5.18945       -1.22882        3.06490
C          4.24426       -0.37406        2.24093
O          4.87595       -0.02790        1.02398
O          3.89444        0.72445        3.02780
C          2.77635        1.50744        2.60261
C          3.22304        2.44232        1.47083
O          4.18881        3.37183        1.95608
C          3.72734        4.21408        3.04787
C          3.32646        3.35130        4.24380
C          2.33302        2.24416        3.86747
O          1.01340        2.73423        3.76492
O          4.49340        2.87332        4.89075
O          4.76833        5.05288        3.37352
C          2.14691        3.06587        0.60100
O          1.26134        3.91315        1.33625
O          4.60092       -1.77837        4.23082
O          7.49652       -1.20243        3.78212
O          6.45633        1.98740        2.95244
O          6.55600       -0.99041       -0.87131
H          7.19931       -1.54880        1.02820
H          8.09820       -0.26653        0.21776
H          6.31042        1.31385        0.50318
H          7.87204        0.62988        2.44228
H          6.05695        0.15018        4.42416
H          5.56245       -2.01821        2.40802
H          3.34456       -0.92051        1.93811
H          1.96651        0.85258        2.26111
H          3.77620        1.81840        0.76968
H          2.89934        4.81675        2.68336
H          2.82497        3.99444        4.96589
H          2.33518        1.51772        4.67840
H          0.94614        3.26075        2.95334
H          4.97010        2.27761        4.29028
H          5.28874        4.57250        4.03563
H          1.59101        2.25246        0.12665
H          2.65486        3.64464       -0.17171
H          0.61112        4.27954        0.73042
H          4.02266       -2.50196        3.97287
H          7.24154       -1.81147        4.48332
H          5.76453        2.38712        2.39845
H          5.61289       -1.11816       -0.72290
