45
-1296.698296
C         -4.05992        3.69430       -7.69275
C         -4.99863        4.44310       -6.76916
C         -6.39876        4.60878       -7.35531
C         -7.20355        5.53994       -6.47586
C         -6.47225        6.84721       -6.29960
C         -5.08290        6.58001       -5.74301
O         -4.37210        5.71502       -6.60036
O         -5.24452        6.03868       -4.46557
C         -4.29532        6.48875       -3.49600
C         -4.38381        5.49946       -2.33053
O         -4.18753        6.18578       -1.10171
C         -5.31073        7.00197       -0.76364
C         -5.74647        7.86852       -1.97367
C         -4.61666        7.90120       -2.99685
O         -3.46254        8.51015       -2.44665
O         -6.94233        7.31567       -2.50612
O         -6.37112        6.24708       -0.28596
C         -3.35888        4.39881       -2.42475
O         -2.07166        4.99434       -2.52362
O         -7.14797        7.70741       -5.39185
O         -8.46691        5.85355       -7.04348
O         -7.12248        3.39190       -7.39936
O         -4.61911        2.40126       -7.93113
H         -3.07999        3.61986       -7.22017
H         -3.96184        4.25877       -8.62241
H         -5.07735        3.92069       -5.81196
H         -6.31247        5.05327       -8.35508
H         -7.32959        5.06613       -5.49807
H         -6.36677        7.33267       -7.27330
H         -4.49269        7.49620       -5.71397
H         -3.29110        6.49665       -3.92442
H         -5.37953        5.04767       -2.35103
H         -4.93260        7.62290        0.04363
H         -5.93437        8.88459       -1.62299
H         -4.92088        8.52325       -3.83940
H         -3.10646        7.87070       -1.81480
H         -6.92810        7.35937       -3.47649
H         -7.01847        6.22474       -1.00765
H         -3.58143        3.79279       -3.30860
H         -3.44134        3.77447       -1.53404
H         -1.41470        4.32199       -2.33159
H         -8.07031        7.72837       -5.67612
H         -8.91304        5.01417       -7.20185
H         -6.53005        2.73077       -7.78207
H         -4.05637        1.93909       -8.55701
