45
-1296.697832
C          4.55554        6.01648        0.56443
C          5.30530        5.08541        1.50066
C          6.30594        4.18656        0.77633
C          6.54122        2.95265        1.62164
C          5.26354        2.13270        1.64936
C          4.04831        3.08463        1.72289
O          4.39879        4.31944        2.31218
O          3.05929        2.55293        2.55113
C          1.90720        2.06677        1.87740
C          0.68650        2.87111        2.29101
O         -0.44204        2.37654        1.56564
C         -0.73865        1.03143        1.84277
C          0.45126        0.12359        1.53545
C          1.70230        0.61455        2.23210
O          2.77057       -0.20739        1.79570
O          0.09358       -1.17934        1.97070
O         -1.11229        0.91102        3.19219
C          0.83071        4.33874        1.96358
O          1.16236        4.56214        0.59398
O          5.28105        1.15788        2.68967
O          7.62555        2.24233        1.04248
O          7.48895        4.94397        0.60698
O          3.77407        5.32359       -0.39441
H          5.29279        6.61195        0.02442
H          3.93877        6.69226        1.16053
H          5.88308        5.68784        2.20328
H          5.90759        3.88008       -0.19784
H          6.78926        3.26710        2.64093
H          5.20507        1.56368        0.72090
H          3.66178        3.25203        0.71760
H          2.03865        2.15185        0.79669
H          0.52041        2.76751        3.36652
H         -1.57512        0.78725        1.18670
H          0.62944        0.13664        0.45627
H          1.56791        0.53293        3.31574
H          3.58485        0.11256        2.21820
H          0.90296       -1.70325        1.94950
H         -0.98841       -0.02141        3.41462
H          1.65183        4.75036        2.54531
H         -0.09287        4.85651        2.22564
H          0.44345        4.20620        0.06131
H          4.99540        1.60288        3.49666
H          7.80504        1.47893        1.60023
H          8.16620        4.31971        0.32161
H          2.88864        5.18257       -0.02988
