24
-686.51844829
C         -0.17565        1.12879       -2.51692
C         -0.30260        1.13525       -1.00415
C          0.88651        1.80902       -0.28309
C          1.52240        0.83782        0.68739
C          1.77344       -0.46735       -0.05080
C          0.43083       -1.11451       -0.40212
O         -0.61319       -0.16367       -0.49416
O          0.10933       -1.95713        0.67570
O          2.59910       -1.32740        0.71372
O          2.73846        1.37758        1.15740
O          0.50292        3.03602        0.31654
O          0.96254        0.40551       -2.97752
H         -0.16307        2.16125       -2.87352
H         -1.04944        0.63148       -2.93411
H         -1.18612        1.72633       -0.76218
H          1.65804        2.08507       -1.00369
H          0.83020        0.64901        1.51930
H          2.31809       -0.24691       -0.96618
H          0.49168       -1.68576       -1.33002
H         -0.75028       -2.34845        0.49533
H          1.99911       -1.87494        1.23644
H          3.23999        0.61854        1.48213
H          0.08030        2.83013        1.15603
H          1.68931        1.02263       -3.08703
