45
-1296.69161391
C          1.75358        4.37598       12.98021
C          0.88722        5.46435       12.38722
C          1.02514        6.80309       13.12398
C          0.13007        6.93320       14.37166
C         -1.11684        6.05353       14.29044
C         -1.47785        5.71638       12.86054
O         -0.45329        4.95528       12.28022
O         -3.33842        8.51259        8.44927
C         -2.39104        7.46032        8.47148
C         -1.62858        7.45600        9.80278
O         -0.34461        6.86839        9.63973
C          0.52120        7.65357        8.85468
C         -0.19820        8.35260        7.68513
C         -1.41602        7.54495        7.28381
O         -0.93527        6.28242        6.85154
O         -0.67662        9.63512        8.06509
O          1.12649        8.67191        9.61278
C         -2.34558        6.66226       10.86199
O         -1.73998        6.90281       12.13904
O         -2.24064        6.63736       14.91967
O          0.82137        6.70159       15.58806
O          0.78648        7.89791       12.24121
O          1.47068        4.23982       14.37566
H          2.80291        4.64038       12.82666
H          1.53723        3.44418       12.45704
H          1.23898        5.63169       11.36648
H          2.06005        6.90613       13.44904
H         -0.19044        7.97301       14.40326
H         -0.86958        5.09181       14.74764
H         -2.36017        5.07526       12.83539
H         -2.96284        6.53488        8.37028
H         -1.53136        8.49250       10.13958
H          1.26002        6.94989        8.47432
H          0.49623        8.43495        6.84709
H         -1.93909        8.07016        6.48038
H         -1.67730        5.79094        6.48920
H         -0.05455        9.93425        8.74643
H          1.25598        8.33112       10.51938
H         -2.27202        5.60331       10.60920
H         -3.39184        6.96836       10.90408
H         -2.81321        9.32338        8.41375
H         -1.98382        6.82128       15.82904
H          1.17439        5.80378       15.51220
H         -0.16124        7.82364       12.02697
H          1.89334        3.43723       14.69214
