24
-686.52142900
C          5.58353        0.98776        0.76353
C          5.54496       -0.51921        0.99744
C          4.46822       -0.97930        1.98726
C          3.03844       -0.60571        1.61615
C          2.02175       -1.17573        2.61863
C          1.89221       -2.66975        2.48254
O          0.85916       -3.17291        2.08391
O          0.77206       -0.56287        2.38408
O          2.86909        0.80520        1.60115
O          4.81096       -0.57436        3.30523
O          6.79701       -1.00793        1.45558
O          5.39509        1.75087        1.96031
H          6.56866        1.23353        0.37374
H          4.83034        1.26758        0.02717
H          5.36767       -1.00270        0.03425
H          4.51854       -2.07008        1.99194
H          2.81821       -1.01259        0.62046
H          2.37221       -0.93133        3.62388
H          2.76237       -3.28532        2.74835
H          0.19430       -1.27272        2.06154
H          1.91300        0.94491        1.66112
H          5.03183        0.36934        3.23146
H          6.79907       -0.87964        2.41174
H          4.43782        1.87804        2.01164
