40
-1161.25010647
O          1.19825        5.09463        0.31294
C          1.93791        4.05745        0.71056
O          1.87735        2.94759        0.23099
C          2.88737        4.39487        1.86652
O          3.74964        3.29104        2.01142
C          3.71803        5.64557        1.64180
C          3.01059        6.88727        2.14671
H          2.04472        6.98994        1.64495
O          3.85786        7.97434        1.85003
C          2.74607        6.75959        3.65645
H          3.63282        7.13546        4.16682
N          1.60986        7.56548        4.08099
C          1.63780        8.91669        4.11602
C          0.43986        9.58638        4.73882
O          2.58517        9.57186        3.67890
C          2.50295        5.30029        4.07339
H          1.67424        5.24801        4.78189
O          2.01779        4.51863        2.97295
C          3.71711        4.65824        4.77281
H          4.64387        4.98122        4.28570
O          3.61615        3.24673        4.77366
C          3.78913        5.05208        6.24485
H          2.88062        4.68164        6.73307
O          3.86312        6.47193        6.30110
C          4.99406        4.41987        6.93688
O          4.81097        3.05349        7.23187
H          0.62783        4.77141       -0.40092
H          3.32075        2.56071        1.53385
H          3.95118        5.76070        0.58465
H          4.66593        5.53266        2.16715
H          3.55086        8.71596        2.40361
H          0.80563        7.09851        4.46250
H         -0.37354        8.89725        4.95163
H          0.09098       10.36717        4.06881
H          0.75745       10.06038        5.66526
H          3.66026        2.97612        3.84210
H          3.98890        6.71890        7.22230
H          5.14387        4.92642        7.89215
H          5.88693        4.59632        6.32696
H          4.50580        2.65314        6.40738
