45
-1296.700054
C          4.27005        1.28330       -6.53710
C          3.36993        1.12425       -7.75487
C          1.97852        1.74477       -7.63588
C          0.94439        0.81684       -6.99322
C          1.00817       -0.57620       -7.63298
C          2.43477       -1.08158       -7.52680
O          3.32257       -0.22389       -8.23480
O          2.56641       -2.34236       -8.12252
C          3.03071       -3.36262       -7.25316
C          4.54275       -3.55281       -7.30034
O          4.88707       -4.59562       -6.38096
C          4.34142       -5.84659       -6.71422
C          2.81864       -5.77689       -6.79896
C          2.38438       -4.65033       -7.70971
O          0.96944       -4.59492       -7.64937
O          2.37908       -7.03505       -7.28717
O          4.88384       -6.27419       -7.93683
C          5.33827       -2.34183       -6.88230
O          4.98279       -1.88145       -5.57495
O          0.53408       -0.59476       -8.96182
O          1.07970        0.75237       -5.59117
O          1.60552        2.05698       -8.98171
O          3.80374        0.64222       -5.35451
H          4.36253        2.34862       -6.32088
H          5.26016        0.90662       -6.79753
H          3.86362        1.67638       -8.55762
H          2.04851        2.65650       -7.03494
H         -0.04921        1.22545       -7.19263
H          0.36574       -1.23963       -7.05382
H          2.71666       -1.14263       -6.47618
H          2.72185       -3.15634       -6.22424
H          4.84275       -3.82694       -8.31514
H          4.64413       -6.51032       -5.90332
H          2.42047       -5.58789       -5.79804
H          2.71510       -4.86106       -8.73164
H          0.70210       -3.85440       -8.20800
H          1.45008       -6.92729       -7.52206
H          4.25916       -6.92340       -8.28723
H          5.13117       -1.52429       -7.56724
H          6.40010       -2.58812       -6.91852
H          5.11919       -2.61628       -4.96683
H          1.10700       -0.00122       -9.46429
H          2.02765        0.68521       -5.37156
H          0.68789        2.34905       -8.97137
H          4.23373       -0.22866       -5.30238
