24
-686.52316047
C          4.89682       -4.71641       -0.27386
C          5.36191       -5.71023        0.76538
C          4.98964       -5.36274        2.20196
C          5.39507       -3.94799        2.60087
C          5.12355       -3.66598        4.07661
C          5.18230       -2.16799        4.34063
O          4.50833       -1.37106        3.72807
O          6.04632       -4.36760        4.89573
O          6.78352       -3.68961        2.43337
O          5.60929       -6.37042        2.99057
O          6.79032       -5.78012        0.63799
O          5.14603       -5.19410       -1.58191
H          3.82116       -4.56989       -0.19234
H          5.38987       -3.75409       -0.10848
H          4.93326       -6.68751        0.53110
H          3.89836       -5.42043        2.29474
H          4.79348       -3.24299        2.01905
H          4.12168       -4.00558        4.34412
H          5.87717       -1.86263        5.14208
H          6.90151       -4.22853        4.46087
H          7.09136       -4.25744        1.70780
H          5.74923       -6.00537        3.87697
H          7.07136       -6.44225        1.28347
H          6.08326       -5.41013       -1.61740
