45
-1296.688179
C         -0.17322        4.35662        7.06348
C          0.89318        3.41203        7.58409
C          0.89140        3.31264        9.09836
C          1.94557        2.31980        9.51970
C          3.29308        2.80080        9.01523
C          3.23411        3.03804        7.51141
O          2.17172        3.88426        7.14215
O          3.14442        1.76100        6.92700
C          3.58032        1.69653        5.57513
C          2.48443        2.07075        4.55762
O          1.98085        0.92171        3.88395
C          2.93028        0.22316        3.10295
C          4.28423        0.12053        3.82699
C          4.05195        0.28434        5.32040
O          5.24859        0.07780        6.04309
O          4.95681       -1.09247        3.55307
O          2.45680       -1.08668        2.96333
C          2.97600        3.15614        3.60699
O          2.07292        3.43379        2.55651
O          4.32787        1.89781        9.35537
O          1.92101        2.24204       10.93663
O         -0.41073        2.92673        9.50945
O         -0.23076        5.59088        7.75414
H         -1.13292        3.83930        7.09890
H          0.05614        4.59209        6.02524
H          0.70368        2.41683        7.16675
H          1.15301        4.29221        9.51059
H          1.71612        1.34340        9.07950
H          3.52453        3.74717        9.50438
H          4.13921        3.54181        7.16501
H          4.44525        2.36095        5.45905
H          1.62576        2.45189        5.10576
H          3.02450        0.70560        2.12623
H          4.94932        0.91751        3.49143
H          3.27158       -0.41193        5.64310
H          5.66321       -0.69563        5.63973
H          4.26704       -1.74601        3.37841
H          1.58433       -1.04306        2.56037
H          3.90528        2.85810        3.12230
H          3.19103        4.04349        4.21108
H          1.22331        3.66092        2.94483
H          4.33054        1.22027        8.66477
H          2.68954        1.72119       11.19648
H         -0.32747        2.64120       10.42695
H         -0.69463        5.42546        8.58001
