24
-686.52562483
C         -0.40528        1.87841       -1.96272
C         -0.89409        0.88373       -0.91922
C         -0.36477        1.11710        0.49050
C          1.10546        0.68967        0.65355
C          1.49868       -0.44847       -0.27623
C          0.27880       -1.23292       -0.74080
O         -0.67025       -0.45962       -1.38482
O         -0.32347       -1.88001        0.38484
O          2.36764       -1.32592        0.44324
O          2.01281        1.76727        0.38467
O         -1.18917        0.50108        1.46077
O          0.98800        1.88063       -2.19859
H         -0.76696        2.87154       -1.67256
H         -0.87175        1.61673       -2.91017
H         -1.97878        0.99721       -0.86087
H         -0.42097        2.18865        0.69161
H          1.22606        0.34802        1.68186
H          1.98771       -0.02721       -1.15251
H          0.57761       -1.99533       -1.46279
H          0.41124       -2.26273        0.88467
H          2.98219       -1.72033       -0.18162
H          1.97097        2.37973        1.12568
H         -1.14732       -0.45148        1.27755
H          1.43225        2.15845       -1.38486
