24
-686.52948307
C         -1.16068       -0.70979        2.55423
C          0.32993       -0.45296        2.48930
C          0.67530        0.90888        1.86908
C          1.69055        0.74207        0.76377
C          1.13375       -0.28527       -0.18801
C          1.08891       -1.65327        0.50093
O          1.04510       -1.54264        1.91162
O          0.07604       -2.46345       -0.02425
O          1.97401       -0.31343       -1.33445
O          1.85104        2.01105        0.15141
O          1.15104        1.74586        2.91232
O         -1.70376       -0.70248        1.22724
H         -1.61655        0.08096        3.15405
H         -1.33404       -1.67604        3.02937
H          0.68552       -0.41535        3.51880
H         -0.21627        1.35019        1.41309
H          2.63902        0.39041        1.18097
H          0.12056        0.01576       -0.46972
H          2.02260       -2.17116        0.29359
H         -0.75460       -2.01213        0.19191
H          1.56215       -0.89246       -1.98314
H          2.30611        1.85212       -0.68331
H          1.42933        2.56712        2.49105
H         -2.65999       -0.77128        1.29375
