45
-1296.691520
C          0.87968        0.79708       -0.03309
C          1.07733        1.03583       -1.52038
C         -0.19771        1.40523       -2.25873
C         -1.18017        0.22101       -2.35732
C         -0.46487       -1.12502       -2.40650
C          0.97562       -0.98547       -2.87342
O          1.73229       -0.13261       -2.07139
O          0.93111       -0.54346       -4.22732
C          1.86858       -1.18508       -5.10076
C          2.31661       -0.16485       -6.13772
O          3.14966       -0.79858       -7.11209
C          2.55308       -1.86136       -7.80100
C          2.10195       -2.94441       -6.83020
C          1.18693       -2.35449       -5.78046
O          0.85782       -3.41356       -4.89337
O          1.42676       -3.93200       -7.59175
O          1.46206       -1.37886       -8.54595
C          3.18085        0.92537       -5.53439
O          4.36328        0.39609       -4.96433
O         -1.14190       -2.08343       -3.21661
O         -2.07149        0.15359       -1.25419
O          0.07087        1.96034       -3.53345
O          2.11165        0.48502        0.58838
H          0.13800        0.01317        0.13632
H          0.51332        1.71057        0.43353
H          1.79423        1.84635       -1.64977
H         -0.69126        2.19496       -1.68987
H         -1.72819        0.36648       -3.29464
H         -0.45355       -1.53487       -1.39795
H          1.47553       -1.95198       -2.83920
H          2.73771       -1.51648       -4.52840
H          1.43913        0.27552       -6.61990
H          3.33244       -2.24435       -8.46114
H          2.98430       -3.36451       -6.33883
H          0.28729       -1.97605       -6.27683
H          0.12663       -3.11932       -4.32653
H          0.97232       -4.49474       -6.95324
H          0.92883       -2.15604       -8.75958
H          2.64317        1.42692       -4.73308
H          3.40740        1.65699       -6.31320
H          4.81466       -0.07205       -5.67446
H         -1.50263       -1.60225       -3.96904
H         -2.64987        0.92179       -1.28987
H          0.47594        1.25003       -4.05445
H          2.52353       -0.19041        0.03878
