24
-686.52789824
C         -2.11557        1.31079       -0.67414
C         -0.82793        0.72257       -0.14921
C          0.34790        1.68358       -0.25581
C          1.53402        1.08936        0.47319
C          1.56955       -0.42708        0.30499
C          0.81195       -0.87272       -0.93563
O         -0.53151       -0.41243       -0.97684
O          0.79011       -2.27686       -0.89993
O          0.98887       -1.00855        1.45838
O          2.76013        1.61651       -0.00840
O          0.09169        2.96210        0.30235
O         -1.95015        1.92202       -1.94613
H         -2.45676        2.09014        0.00295
H         -2.87534        0.52707       -0.70544
H         -0.96809        0.40588        0.88778
H          0.60567        1.77630       -1.31394
H          1.40994        1.28665        1.54144
H          2.61264       -0.72993        0.18714
H          1.32836       -0.52467       -1.83537
H          0.13921       -2.56866       -1.54608
H          0.79486       -1.92377        1.22022
H          2.69771        2.57378        0.07558
H         -0.46259        3.43621       -0.32658
H         -1.63327        1.23292       -2.53860
