24
-686.52198588
C         -4.96560       -4.24086        1.67564
C         -3.85136       -4.32460        2.69390
C         -2.79803       -5.36063        2.27580
C         -1.44696       -5.15783        2.95893
C         -0.67221       -3.94588        2.42192
C          0.80418       -4.12466        2.66887
O          1.44823       -3.29461        3.27844
O         -1.10952       -2.76905        3.06808
O         -1.60738       -5.02859        4.36291
O         -2.54256       -5.37657        0.88170
O         -4.45691       -4.74027        3.91733
O         -5.43027       -5.53446        1.29629
H         -5.77467       -3.63887        2.09249
H         -4.60942       -3.76406        0.76686
H         -3.40201       -3.33381        2.79999
H         -3.17967       -6.33092        2.60527
H         -0.85307       -6.05362        2.76583
H         -0.83030       -3.89433        1.34040
H          1.26747       -5.03732        2.26553
H         -0.29353       -2.33450        3.36915
H         -1.58242       -4.07171        4.52010
H         -3.34245       -5.73297        0.47538
H         -3.73414       -4.99404        4.50501
H         -5.72781       -5.96044        2.10728
