40
-1161.23824763
O          6.62427       -5.25088        5.63846
C          7.07289       -3.99178        5.46431
O          8.01937       -3.52793        6.04822
C          6.21498       -3.18798        4.47205
O          6.94136       -2.09947        4.01316
C          5.77096       -3.97832        3.24496
C          4.42087       -3.49295        2.70915
H          3.62553       -4.14437        3.09546
O          4.37630       -3.47451        1.29035
C          4.10919       -2.08232        3.19298
H          4.87993       -1.40327        2.83923
N          2.85778       -1.64200        2.61726
C          2.79219       -0.62315        1.72673
C          1.51020       -0.51594        0.94652
O          3.71583        0.17837        1.57308
C          4.01296       -2.13953        4.71508
H          3.14204       -2.76473        4.94319
O          5.13645       -2.81142        5.30762
C          3.72836       -0.85481        5.52031
H          4.09073       -1.09748        6.52078
O          2.32162       -0.67526        5.60886
C          4.31853        0.51807        5.14173
H          4.15300        1.12971        6.03267
O          3.54890        1.14667        4.12902
C          5.79115        0.58989        4.77926
O          6.63808       -0.03777        5.73889
H          7.18997       -5.64041        6.32120
H          7.21297       -1.58855        4.79624
H          5.71770       -5.03689        3.48317
H          6.52465       -3.82272        2.47466
H          4.66051       -4.33737        0.97432
H          2.08139       -2.28301        2.64649
H          0.70824       -1.11820        1.36646
H          1.70700       -0.84878       -0.07125
H          1.20816        0.52645        0.90887
H          2.12435        0.00281        4.94642
H          3.82786        0.82905        3.24925
H          6.05572        1.63982        4.64637
H          5.97576        0.08110        3.83723
H          6.71186        0.52727        6.51170
