45
-1296.693576
C         -4.95137       -4.76935        4.68918
C         -4.98700       -4.38379        6.15811
C         -6.18304       -4.97307        6.89184
C         -6.19989       -4.48357        8.32013
C         -6.23616       -2.96763        8.32291
C         -5.06385       -2.44029        7.50886
O         -5.06758       -2.95479        6.20040
O         -3.89405       -2.80219        8.20350
C         -2.82725       -1.86241        8.09597
C         -1.50286       -2.63661        8.05586
O         -0.71675       -2.43468        9.23945
C         -1.40759       -2.65691       10.43216
C         -2.60893       -1.69055       10.60660
C         -2.90859       -0.94016        9.30482
O         -1.98280        0.11770        9.09579
O         -3.76774       -2.35076       11.08909
O         -1.91976       -3.97105       10.51588
C         -0.61907       -2.21254        6.90361
O         -0.45380       -0.81231        6.81596
O         -6.26412       -2.44035        9.63211
O         -7.34991       -5.03237        8.94677
O         -6.09312       -6.39222        6.83284
O         -4.56947       -6.11774        4.50345
H         -4.20726       -4.15266        4.18959
H         -5.92587       -4.55505        4.23822
H         -4.06568       -4.72763        6.63542
H         -7.09811       -4.63008        6.39518
H         -5.28950       -4.82811        8.82257
H         -7.15833       -2.64420        7.83855
H         -5.12791       -1.35623        7.39799
H         -2.92885       -1.27362        7.18242
H         -1.74420       -3.69685        7.95900
H         -0.66579       -2.49077       11.21120
H         -2.31870       -0.93827       11.34436
H         -3.93130       -0.55889        9.37485
H         -2.12589        0.78362        9.77487
H         -3.53870       -3.29088       11.11151
H         -1.17764       -4.57887       10.58914
H         -1.08099       -2.53950        5.97199
H          0.34276       -2.72139        7.00936
H         -0.44577       -0.45738        7.71286
H         -5.36560       -2.48417       10.00513
H         -7.45823       -4.55705        9.77883
H         -6.77391       -6.73302        7.42458
H         -5.13192       -6.64395        5.08418
