24
-686.52175813
C         -0.13577       -2.08956       -2.09064
C          0.70002       -1.40033       -1.01422
C          0.10453       -0.09459       -0.44779
C         -0.57324        0.83324       -1.44934
C         -0.87255        2.21575       -0.85975
C         -1.85487        2.12530        0.27634
O         -2.98278        2.56699        0.16385
O         -1.38241        3.03418       -1.89039
O          0.25336        1.02929       -2.59413
O          1.11050        0.57637        0.28399
O          2.01748       -1.16458       -1.48336
O          0.12980       -1.57849       -3.38516
H          0.13626       -3.14157       -2.12775
H         -1.19824       -2.02463       -1.83477
H          0.79599       -2.07320       -0.16113
H         -0.67225       -0.38738        0.26460
H         -1.52657        0.38611       -1.75991
H          0.06692        2.62805       -0.48963
H         -1.51311        1.64246        1.20206
H         -2.31461        3.18047       -1.66642
H         -0.11578        1.80216       -3.04618
H          1.92701        0.38969       -0.20372
H          1.93509       -1.05246       -2.44079
H          0.02842       -0.61327       -3.35357
