45
-1296.696954
C         -4.59881        6.54799        2.53378
C         -3.67924        5.35729        2.22934
C         -4.06200        4.59025        0.97643
C         -5.43015        3.92295        1.14468
C         -5.72740        3.54256        2.59986
C         -4.44419        3.37677        3.40107
O         -3.63465        4.50906        3.40082
O         -3.71777        2.26964        2.83323
C         -3.68756        1.07441        3.59633
C         -2.35067        0.95421        4.31905
O         -2.28392       -0.29522        5.02369
C         -2.42777       -1.42800        4.20370
C         -3.73620       -1.39048        3.42828
C         -3.85806       -0.09042        2.65262
O         -5.13826        0.00276        2.04446
O         -3.87240       -2.50650        2.56686
O         -1.40688       -1.53378        3.23671
C         -2.16087        2.03154        5.36453
O         -3.20156        2.02329        6.32815
O         -6.55782        2.40677        2.71122
O         -6.40273        4.85407        0.65707
O         -3.05362        3.67370        0.59409
O         -4.90337        7.32070        1.38954
H         -4.08936        7.20258        3.23777
H         -5.50609        6.19208        3.02223
H         -2.65774        5.70975        2.09595
H         -4.14072        5.30092        0.15690
H         -5.43398        3.01682        0.53523
H         -6.28787        4.35835        3.05407
H         -4.66449        3.14107        4.44219
H         -4.50165        1.06960        4.32478
H         -1.54386        1.01702        3.58330
H         -2.40840       -2.27788        4.88523
H         -4.55975       -1.44598        4.13977
H         -3.07478       -0.04462        1.88870
H         -5.30461       -0.84255        1.61005
H         -3.02198       -2.60236        2.12015
H         -0.58419       -1.74870        3.68720
H         -2.17967        3.00810        4.88550
H         -1.18486        1.89305        5.83507
H         -3.18411        1.15617        6.74568
H         -6.08407        1.64268        2.34432
H         -7.27271        4.46940        0.80930
H         -2.99377        3.01483        1.30012
H         -5.57133        6.82171        0.90343
