45
-1296.690767
C         -2.24069        4.99373       -4.15616
C         -2.83270        3.60203       -4.06558
C         -4.10742        3.42983       -4.89552
C         -5.38103        3.92536       -4.18986
C         -5.33241        3.75892       -2.66690
C         -4.21604        2.84214       -2.19862
O         -2.98205        3.33495       -2.65054
O         -4.51740        1.53752       -2.64095
C         -3.85630        0.44965       -1.98956
C         -4.17780        0.33016       -0.49999
O         -3.65416       -0.92425       -0.03835
C         -2.25929       -1.03398       -0.15386
C         -1.80938       -0.85677       -1.59416
C         -2.35356        0.43771       -2.18135
O         -2.06732        0.49672       -3.56689
O         -0.39890       -0.91287       -1.72123
O         -1.56785       -0.05641        0.59473
C         -5.67007        0.32472       -0.18575
O         -6.16269        1.61839        0.08769
O         -6.55860        3.27551       -2.13342
O         -5.71499        5.26387       -4.52421
O         -4.25008        2.10249       -5.36414
O         -3.11051        5.98922       -3.61493
H         -2.07495        5.25843       -5.19826
H         -1.28236        5.01266       -3.63512
H         -2.10799        2.88401       -4.45296
H         -3.99950        4.03966       -5.79295
H         -6.18983        3.30457       -4.57020
H         -5.10592        4.73785       -2.23701
H         -4.14496        2.86383       -1.11178
H         -4.27153       -0.43143       -2.48433
H         -3.71798        1.13908        0.07119
H         -2.02236       -2.03534        0.20456
H         -2.20448       -1.68688       -2.17949
H         -1.90738        1.28967       -1.65936
H         -1.14737        0.22051       -3.66150
H         -0.04878       -0.35809       -1.01327
H         -1.69907       -0.24697        1.52883
H         -5.79916       -0.26871        0.71781
H         -6.22371       -0.16072       -0.99325
H         -6.40065        2.05832       -0.74109
H         -7.24721        3.90882       -2.36049
H         -4.94076        5.79610       -4.28362
H         -4.24261        1.53345       -4.58231
H         -3.12278        5.83796       -2.66415
