30
-819.15287336
C          3.00295        0.98370       -2.31515
C          2.45652        0.54031       -3.65823
C          1.38992       -0.55588       -3.64892
C          1.76222       -1.84559       -2.90760
C          1.51824       -1.79051       -1.39207
C          2.21559       -2.97292       -0.76298
O          3.58240        0.11434       -4.41483
N          0.11217       -1.85953       -1.06657
C         -0.57516       -0.71888       -0.72044
O         -0.13408        0.39877       -0.94316
C         -1.90686       -0.95507       -0.05582
O          1.00968       -2.93529       -3.44623
O          1.20548       -0.86649       -5.02983
O          3.87109        0.00379       -1.75595
H          3.54041        1.92331       -2.45674
H          2.18934        1.15161       -1.61262
H          1.98972        1.40778       -4.13648
H          0.46907       -0.14542       -3.22721
H          2.80665       -2.07985       -3.10644
H          1.96528       -0.88504       -0.98657
H          3.29875       -3.02452       -0.94914
H         -0.14561       -2.71120       -0.58158
H         -2.61239       -0.20934       -0.40849
H         -2.29545       -1.95288       -0.24234
H         -1.78294       -0.82040        1.01784
H          0.13953       -2.88190       -3.02572
H          0.90081       -1.78458       -5.04426
H          4.48321       -0.21682       -2.46822
O          1.63791       -3.81782       -0.11127
H          3.20887       -0.32770       -5.18900
