24
-686.52746242
C         -1.12365        0.11653        3.04795
C          0.01123       -0.28175        2.13055
C          1.09765        0.79777        2.02388
C          1.51161        0.97050        0.55784
C          1.67559       -0.40379       -0.08399
C          0.30643       -1.13828       -0.06411
O         -0.58814       -0.51180        0.86088
O          0.47761       -2.48246        0.21146
O          2.66230       -1.18030        0.58844
O          0.57764        1.76250       -0.15264
O          2.20928        0.34532        2.81057
O         -0.55306        0.46467        4.30039
H         -1.81883       -0.71973        3.13324
H         -1.65007        0.96315        2.59710
H          0.47700       -1.19767        2.50304
H          0.72812        1.75208        2.40063
H          2.46220        1.50277        0.52047
H          1.99628       -0.29573       -1.11819
H         -0.20943       -1.03065       -1.01506
H          1.38594       -2.55718        0.54816
H          2.76294       -0.81679        1.48385
H         -0.27135        1.31314       -0.04917
H          2.73561        1.11090        3.05936
H         -1.26941        0.69180        4.89759
