24
-686.52999702
C         -0.01948       -1.29896        3.33590
C          1.29601       -1.03610        2.62386
C          1.53489        0.41219        2.18073
C          1.01552        0.70890        0.77231
C          1.51980       -0.35555       -0.20442
C          1.12101       -1.74361        0.27952
O          1.55147       -2.00062        1.59162
O         -0.27490       -1.92910        0.10745
O          2.94222       -0.35453       -0.30750
O         -0.40305        0.77866        0.69233
O          2.91401        0.73543        2.26288
O         -1.18293       -1.03135        2.55987
H         -0.07475       -0.65248        4.21068
H         -0.02289       -2.33669        3.67272
H          2.07261       -1.23489        3.36451
H          1.02773        1.07662        2.88212
H          1.41638        1.68145        0.48089
H          1.06053       -0.19303       -1.18225
H          1.62966       -2.50340       -0.30785
H         -0.65229       -1.04997       -0.04847
H          3.19963        0.43746       -0.79029
H         -0.77921        0.33304        1.47844
H          3.34531        0.22528        1.56360
H         -1.15478       -1.67047        1.82943
