24
-686.54013666
C         -2.08576        1.76533       -0.46417
C         -0.95929        0.87554        0.03365
C          0.28069        1.66193        0.42640
C          1.36979        0.70357        0.84058
C          1.66354       -0.25041       -0.30128
C          0.37920       -0.93043       -0.75708
O         -0.62888        0.00105       -1.05176
O          0.02098       -1.81309        0.28599
O          2.65826       -1.19236        0.06223
O          2.51196        1.47813        1.17393
O         -0.05946        2.54537        1.48722
O         -2.70673        2.47614        0.58726
H         -2.84685        1.13513       -0.91904
H         -1.69586        2.43593       -1.23705
H         -1.31367        0.30258        0.89382
H          0.62407        2.22927       -0.44649
H          1.02445        0.13673        1.71155
H          2.06661        0.32091       -1.13675
H          0.54084       -1.47604       -1.68637
H         -0.69796       -2.37007       -0.02827
H          2.20439       -1.86169        0.58906
H          3.23691        0.85805        1.31115
H          0.77092        2.90428        1.82107
H         -1.99966        2.89926        1.08855
