24
-686.52786119
C         -0.39260        2.00910       -1.78308
C         -0.60124        1.24460       -0.48445
C          0.34145        1.59479        0.66238
C          1.73061        0.97460        0.48754
C          1.62255       -0.50204        0.12403
C          0.67380       -0.70566       -1.04889
O         -0.60567       -0.16870       -0.73306
O          0.50683       -2.04806       -1.33967
O          1.07329       -1.26399        1.20197
O          2.46839        1.56762       -0.57335
O         -0.20965        1.19656        1.90631
O         -1.36218        1.61273       -2.73719
H          0.61815        1.87511       -2.16918
H         -0.54215        3.07200       -1.59481
H         -1.61299        1.45318       -0.13860
H          0.44469        2.68148        0.71341
H          2.26077        1.07039        1.43999
H          2.60660       -0.87655       -0.16182
H          1.08607       -0.23415       -1.94105
H          0.28217       -2.47300       -0.50258
H          1.77015       -1.42007        1.84552
H          2.62574        2.48984       -0.35047
H         -0.23423        0.23080        1.88809
H         -1.43944        0.65532       -2.65132
