24
-686.52480051
C         -1.07559        1.32943       -2.23070
C         -0.51857        1.07187       -0.84500
C          0.87224        1.66781       -0.65626
C          1.48491        1.07805        0.59377
C          1.69110       -0.42290        0.43278
C          0.71715       -0.95921       -0.61771
O         -0.55215       -0.33568       -0.55104
O          0.53147       -2.31901       -0.35721
O          1.50727       -1.02393        1.69737
O          2.69471        1.78890        0.83190
O          0.69118        3.06562       -0.53015
O         -0.34446        0.64201       -3.23822
H         -0.99464        2.39271       -2.44776
H         -2.13006        1.04791       -2.25477
H         -1.16484        1.55633       -0.11036
H          1.50794        1.44700       -1.52010
H          0.78560        1.22510        1.42111
H          2.70661       -0.59626        0.06136
H          1.14036       -0.80732       -1.61540
H         -0.25235       -2.60034       -0.83958
H          1.23671       -1.93436        1.52669
H          3.00222        1.55884        1.71362
H          1.52146        3.40349       -0.17381
H         -0.61719       -0.27786       -3.19840
