24
-686.52196691
C         -3.46093        0.19909       -1.73989
C         -4.24410        1.03841       -0.73147
C         -5.74430        1.05610       -1.01656
C         -6.46719       -0.21339       -0.56243
C         -6.64037       -0.28350        0.95307
C         -7.15528       -1.64687        1.35090
O         -8.16931       -1.77020        2.00559
O         -7.55639        0.70607        1.35336
O         -7.75318       -0.27184       -1.16851
O         -5.94071        1.20333       -2.42217
O         -3.71914        2.35157       -0.70745
O         -3.30799        0.90005       -2.96331
H         -2.45678        0.03086       -1.35769
H         -3.93897       -0.77194       -1.89316
H         -4.08954        0.62326        0.26669
H         -6.17348        1.91352       -0.49008
H         -5.92296       -1.09166       -0.91576
H         -5.66989       -0.14568        1.44371
H         -6.56353       -2.51616        1.02597
H         -8.18817        0.24758        1.93105
H         -8.31377        0.29130       -0.61459
H         -6.84583        0.90610       -2.58689
H         -3.42766        2.51901       -1.61412
H         -4.20863        1.02759       -3.29185
