45
-1296.687513
C          4.17698       -6.23542        0.25405
C          3.01436       -6.92715        0.94074
C          1.66482       -6.27745        0.62075
C          0.72637       -6.48298        1.79710
C          1.24249       -5.72188        3.00504
C          2.77163       -5.83630        3.04660
O          3.22218       -7.00655        2.35988
O          3.22252       -5.94804        4.34832
C          4.46517       -5.29567        4.63722
C          4.28691       -3.79004        4.79371
O          5.52487       -3.23590        5.23876
C          6.58663       -3.42938        4.34947
C          6.82910       -4.91462        4.09005
C          5.55057       -5.57357        3.61759
O          5.82099       -6.95823        3.43881
O          7.84487       -4.98984        3.10255
O          6.30830       -2.76409        3.13919
C          3.24514       -3.42744        5.84215
O          1.92213       -3.63688        5.38697
O          0.69128       -6.20088        4.21650
O         -0.57713       -6.01054        1.52045
O          1.10422       -6.78217       -0.58490
O          5.39688       -6.92299        0.42282
H          4.24553       -5.19831        0.60379
H          3.97355       -6.20380       -0.81595
H          2.98745       -7.96919        0.61399
H          1.77662       -5.20509        0.44066
H          0.70862       -7.54941        2.05270
H          0.99261       -4.66534        2.86923
H          3.19054       -4.95598        2.54827
H          4.76453       -5.71154        5.60083
H          3.99455       -3.33494        3.84377
H          7.45530       -2.99001        4.84107
H          7.15086       -5.38863        5.02112
H          5.28166       -5.11467        2.66096
H          4.95837       -7.37933        3.29361
H          7.91144       -5.91171        2.82995
H          6.92745       -3.12760        2.49213
H          3.34487       -2.36511        6.05297
H          3.45062       -3.97610        6.76584
H          1.76704       -4.58839        5.32961
H         -0.26401       -6.09723        4.13840
H         -0.78442       -6.28559        0.61939
H          1.14145       -7.74441       -0.54480
H          5.59736       -6.96389        1.36773
