45
-1296.685467
C          0.75579      -18.97533        0.53684
C         -0.48439      -18.16352        0.24179
C         -0.72515      -17.94753       -1.24187
C         -1.91474      -17.02147       -1.41791
C         -1.70955      -15.73545       -0.63725
C         -1.44243      -16.08019        0.82309
O         -0.28191      -16.89706        0.87526
O         -2.57459      -16.72471        1.31523
C         -2.76043      -16.74784        2.73142
C         -3.18990      -15.38386        3.25583
O         -3.55723      -15.45611        4.64621
C         -3.19235      -16.65504        5.35028
C         -1.74640      -16.97302        5.01262
C         -1.58082      -17.30358        3.51804
O         -1.52633      -18.70360        3.31894
O         -0.93936      -15.87505        5.43043
O         -3.38799      -16.41838        6.69741
C         -4.39330      -14.83126        2.51889
O         -4.81056      -13.60822        3.09450
O         -2.81903      -14.87223       -0.72295
O         -2.16765      -16.75175       -2.79830
O         -0.94809      -19.20752       -1.84257
O          0.98198      -19.05822        1.94479
H          1.62056      -18.53105        0.03897
H          0.62388      -19.98984        0.17331
H         -1.35446      -18.65863        0.67682
H          0.16428      -17.46343       -1.67190
H         -2.81309      -17.52061       -1.05664
H         -0.80318      -15.23903       -1.00791
H         -1.19095      -15.18686        1.39650
H         -3.59034      -17.44438        2.86200
H         -2.37000      -14.66057        3.16342
H         -3.85902      -17.47323        5.07748
H         -1.41589      -17.83858        5.58151
H         -0.65861      -16.81949        3.19591
H         -0.66373      -18.93138        2.93706
H         -1.37937      -15.07448        5.11933
H         -2.63633      -15.89108        6.99493
H         -5.19194      -15.58038        2.55000
H         -4.13960      -14.63461        1.48058
H         -4.93423      -13.78717        4.03305
H         -3.16177      -14.94680       -1.62091
H         -1.38767      -16.31158       -3.15672
H         -1.39013      -19.04225       -2.68314
H          1.29223      -18.18833        2.21655
