45
-1296.687232
C         -3.68587      -11.07354        6.62743
C         -2.33251      -10.40070        6.54743
C         -2.13292       -9.26943        7.56325
C         -2.31311       -7.93243        6.84961
C         -1.26389       -7.78201        5.73813
C         -1.10619       -9.10993        4.95467
O         -2.24207       -9.92014        5.18897
O          0.08359       -9.71412        5.37543
C          0.35892      -11.02336        4.88185
C          1.69159      -11.39591        5.52549
O          2.02434      -12.74958        5.20321
C          2.19320      -12.96620        3.83041
C          0.95817      -12.55257        3.04965
C          0.52852      -11.12721        3.37948
O         -0.68966      -10.85508        2.70105
O          1.14207      -12.69984        1.65091
O          3.26662      -12.22492        3.28101
C          1.69881      -11.25664        7.03675
O          0.56102      -11.81869        7.66039
O          0.00440       -7.40431        6.26890
O         -3.62566       -7.78669        6.34000
O         -0.85681       -9.33184        8.20496
O         -3.79854      -12.10197        5.66309
H         -4.48295      -10.33156        6.51848
H         -3.79012      -11.53975        7.60589
H         -1.56551      -11.15684        6.70819
H         -2.87633       -9.35658        8.35558
H         -2.17127       -7.12438        7.56824
H         -1.63594       -7.02489        5.04504
H         -1.10607       -8.94858        3.88060
H         -0.41060      -11.72664        5.20701
H          2.46524      -10.73079        5.12817
H          2.37309      -14.03579        3.72702
H          0.14137      -13.21846        3.32707
H          1.30790      -10.42473        3.06212
H         -0.56443      -11.19770        1.80654
H          2.02228      -12.34919        1.46571
H          4.08636      -12.58702        3.63114
H          1.79368      -10.19685        7.27487
H          2.59139      -11.76821        7.40038
H          0.04087      -11.07749        8.00289
H         -0.09079       -6.51154        6.61732
H         -3.70563       -8.43149        5.62637
H         -0.23338       -8.85137        7.63803
H         -3.50199      -11.72178        4.82866
