45
-1296.69956070
C         -1.36797       -3.35229        4.55995
C         -0.29747       -2.42172        4.00190
C          1.08334       -3.02863        3.72557
C          1.98715       -3.08017        4.95551
C          1.96970       -1.74137        5.68413
C          0.54070       -1.28584        5.93893
O         -0.18467       -1.18968        4.72653
O          1.68897        1.89512        4.72454
C          0.53341        2.62463        5.12187
C         -0.64915        1.68521        5.32678
O         -1.81966        2.45581        5.64010
C         -2.20284        3.38660        4.66371
C         -1.08344        4.37552        4.37876
C          0.18060        3.61654        4.03504
O          1.29062        4.49283        3.89938
O         -1.42706        5.28357        3.34569
O         -2.51719        2.78842        3.42427
C         -0.51163        0.76787        6.53231
O          0.67574       -0.00333        6.47354
O          2.63979       -0.80933        4.85742
O          1.53404       -4.14047        5.79966
O          1.73760       -2.29976        2.70261
O         -1.19317       -3.80850        5.88572
H         -1.46333       -4.18945        3.85732
H         -2.31076       -2.80734        4.55212
H         -0.66138       -2.11798        3.01852
H          0.94781       -4.04581        3.35462
H          3.00157       -3.27974        4.60677
H          2.47317       -1.83653        6.65413
H          0.01358       -1.94776        6.63083
H          0.72724        3.16936        6.05335
H         -0.80098        1.09571        4.42333
H         -3.07322        3.89228        5.08128
H         -0.90888        4.97101        5.27389
H          0.02253        3.05755        3.10650
H          1.02682        5.17777        3.27463
H         -1.84671        4.75121        2.65853
H         -3.31616        2.26467        3.53907
H         -1.39538        0.13198        6.60259
H         -0.44577        1.38228        7.43000
H          2.29100        2.55017        4.34890
H          2.27768        0.07610        5.05086
H          2.11615       -4.18995        6.56430
H          2.08744       -1.50438        3.13466
H         -0.29602       -4.16617        5.95262
