45
-1296.693334
C         -8.39184       -4.91036       -1.34123
C         -7.07127       -5.63123       -1.49089
C         -7.06184       -7.00075       -0.83309
C         -5.68812       -7.59978       -1.03130
C         -4.63107       -6.69111       -0.43516
C         -4.75925       -5.28765       -1.00973
O         -6.07602       -4.79608       -0.89486
O         -4.31090       -5.35394       -2.33778
C         -4.00743       -4.07558       -2.89643
C         -5.25905       -3.36218       -3.44369
O         -5.22760       -3.23545       -4.86578
C         -4.11996       -2.55298       -5.40704
C         -2.82534       -2.89338       -4.65544
C         -2.98639       -4.25297       -3.99013
O         -1.76860       -4.67473       -3.41151
O         -1.68929       -2.86706       -5.49638
O         -3.94841       -3.02675       -6.71647
C         -5.53109       -2.04894       -2.72269
O         -6.79056       -1.50533       -3.04357
O         -3.33283       -7.21792       -0.63290
O         -5.68434       -8.87419       -0.40816
O         -8.06160       -7.79072       -1.45184
O         -8.49955       -3.79055       -2.22447
H         -8.46466       -4.51512       -0.33023
H         -9.20464       -5.61574       -1.50693
H         -6.85946       -5.77660       -2.55583
H         -7.25543       -6.89517        0.24086
H         -5.51057       -7.70106       -2.10783
H         -4.79115       -6.63550        0.64192
H         -4.14538       -4.58112       -0.44629
H         -3.53592       -3.46965       -2.11354
H         -6.11197       -4.00761       -3.26940
H         -4.31234       -1.47632       -5.41789
H         -2.64393       -2.15231       -3.87467
H         -3.35019       -4.98105       -4.72144
H         -1.08543       -4.44142       -4.05329
H         -2.00364       -3.12090       -6.37407
H         -4.78437       -2.91197       -7.17876
H         -4.78389       -1.29953       -2.98943
H         -5.43939       -2.24132       -1.64925
H         -7.44671       -2.12373       -2.69270
H         -3.04948       -6.91002       -1.50503
H         -4.77392       -9.19049       -0.43720
H         -7.86675       -8.70462       -1.21340
H         -8.80181       -4.11845       -3.07587
