45
-1296.694293
C          0.28988        0.29185       -2.31123
C         -0.96188        0.38101       -1.42738
C         -1.06452        1.67168       -0.63443
C          0.07271        1.77679        0.38653
C          0.54375        0.40632        0.88843
C         -0.54832       -0.64094        0.73102
O         -0.99939       -0.79079       -0.57655
O         -1.63044       -0.24825        1.58976
C         -1.96506       -1.10779        2.66836
C         -3.20729       -1.92599        2.34009
O         -3.59854       -2.70061        3.48460
C         -3.90377       -1.93617        4.62440
C         -2.71488       -1.08249        5.03784
C         -2.24114       -0.23481        3.87005
O         -1.04423        0.44938        4.21035
O         -3.00833       -0.26826        6.15884
O         -4.97210       -1.04064        4.41945
C         -2.97777       -2.93001        1.23244
O         -4.15687       -3.65717        0.94584
O          1.03676        0.43819        2.20906
O          1.14326        2.46979       -0.26406
O         -2.34146        1.82358       -0.04362
O          0.55763        1.48812       -3.01485
H          0.13035       -0.48840       -3.05243
H          1.14433       -0.00848       -1.70434
H         -1.85357        0.30750       -2.04757
H         -0.96094        2.50205       -1.32909
H         -0.29456        2.35675        1.23546
H          1.38396        0.09432        0.27003
H         -0.18759       -1.61648        1.05926
H         -1.12474       -1.77186        2.89627
H         -4.01755       -1.24989        2.05631
H         -4.14557       -2.66351        5.39884
H         -1.90387       -1.74505        5.33862
H         -3.02375        0.48244        3.60152
H         -1.19493        0.86475        5.06812
H         -3.87829        0.11424        5.98884
H         -5.78266       -1.54952        4.31872
H         -2.16166       -3.59868        1.52760
H         -2.69269       -2.40926        0.32149
H         -4.43312       -4.05766        1.77584
H          0.29387        0.60482        2.81201
H          1.88188        2.50745        0.35320
H         -2.44221        1.10308        0.59362
H          0.95253        2.09120       -2.37317
