45
-1296.69188366
C         -1.45455       12.72065        1.21880
C         -2.72524       13.53888        1.19319
C         -3.40420       13.50686       -0.17840
C         -3.23267       14.85856       -0.86226
C         -3.79519       16.00008       -0.00637
C         -3.39291       15.80781        1.47876
O         -2.31580       14.87497        1.56629
O         -6.22760       13.41772        6.12434
C         -5.38934       14.48493        5.73140
C         -4.93506       14.30624        4.28231
O         -4.00636       13.22498        4.16899
C         -2.84724       13.36712        4.97686
C         -3.21056       13.47151        6.44923
C         -4.20250       14.60514        6.68007
O         -3.57820       15.85854        6.40940
O         -3.80499       12.26014        6.88870
O         -2.09034       12.21396        4.83558
C         -4.43600       15.57259        3.60729
O         -4.50263       15.37475        2.18925
O         -5.18275       16.16889       -0.17260
O         -1.86482       15.07151       -1.18445
O         -4.77511       13.19386        0.03976
O         -0.79054       12.82936        2.47701
H         -0.78589       13.02937        0.41194
H         -1.70026       11.66997        1.08185
H         -3.42236       13.16861        1.94287
H         -2.92923       12.74367       -0.80372
H         -3.77623       14.86708       -1.80695
H         -3.31569       16.90954       -0.36896
H         -2.98888       16.72708        1.90533
H         -5.98177       15.39706        5.80689
H         -5.80939       13.97083        3.72454
H         -2.28514       14.25571        4.67046
H         -2.28969       13.67243        7.00860
H         -4.57866       14.55623        7.70381
H         -2.93957       16.03042        7.10754
H         -3.32039       11.55512        6.43728
H         -1.64128       12.26006        3.97077
H         -3.42029       15.82100        3.90461
H         -5.08436       16.41066        3.86953
H         -5.64318       12.66427        6.29208
H         -5.59578       15.61704        0.50344
H         -1.41790       15.21301       -0.34183
H         -5.21517       13.19150       -0.81670
H         -0.66950       13.77498        2.62318
