24
-686.52181428
C         -1.56869        1.56770        0.79455
C         -0.77643        0.37042        1.29588
C          0.54329        0.72182        1.99168
C          1.70743        0.95508        1.02820
C          1.73463       -0.11266       -0.07730
C          0.63859       -1.15255        0.08493
O         -0.61406       -0.47868        0.15668
O          0.59357       -2.01999       -1.00624
O          3.00915       -0.72237       -0.08920
O          1.71879        2.27356        0.52528
O          0.96168       -0.34300        2.84427
O         -0.94195        2.18895       -0.32206
H         -1.65160        2.32296        1.57289
H         -2.57181        1.23565        0.52216
H         -1.40049       -0.14855        2.03562
H          0.39809        1.64039        2.56650
H          2.61981        0.83436        1.60796
H          1.53665        0.40373       -1.02760
H          0.80538       -1.77382        0.96184
H          0.38620       -1.48929       -1.78401
H          2.95851       -1.46536       -0.70083
H          0.85273        2.43281        0.11720
H          0.27010       -0.49626        3.49494
H         -0.88647        1.49950       -0.99422
