30
-819.15403610
C         -0.94222       -4.97310       -2.03992
C         -0.15486       -4.17876       -1.01489
C         -0.69619       -2.76526       -0.76293
C          0.02738       -1.70890       -1.58923
C          1.57298       -1.82536       -1.45387
C          2.02148       -3.19973       -0.92766
O          1.18200       -4.18348       -1.51469
N          2.17098       -0.79961       -0.63885
C          2.39254        0.50149       -1.00284
O          2.86251        1.31008       -0.21501
C          2.05009        0.85700       -2.42974
O         -0.39444       -1.72677       -2.93400
O         -0.51168       -2.50847        0.63933
O         -0.78705       -4.44087       -3.35292
H         -0.60583       -6.00975       -2.01384
H         -2.00422       -4.94408       -1.80892
H         -0.20038       -4.71173       -0.06003
H         -1.76169       -2.73550       -1.00157
H         -0.25297       -0.72960       -1.19248
H          1.94496       -1.75345       -2.47591
H          3.01959       -3.42886       -1.28981
H          2.45987       -1.04977        0.29547
H          2.13536        1.93252       -2.53646
H          2.75471        0.37582       -3.10843
H          1.05190        0.53061       -2.71508
H         -0.58173       -2.64729       -3.19119
H         -0.78447       -1.60149        0.81762
H          0.14088       -4.57752       -3.57800
O          2.08543       -3.29442        0.46069
H          1.22900       -3.00218        0.81768
