40
-1161.24637740
O          1.26319        4.20773        7.42333
C          1.41938        3.68419        8.65711
O          0.66690        3.88631        9.57833
C          2.61655        2.72951        8.69862
O          3.63656        3.13929        7.84022
C          3.21375        2.58064       10.08771
C          3.78519        1.18307       10.23046
H          4.29919        1.07223       11.18294
O          4.70225        0.86172        9.18079
C          2.63509        0.16439       10.19061
H          3.06467       -0.78398        9.87362
N          2.03952        0.00629       11.50318
C          2.68009       -0.75308       12.44741
C          1.86311       -1.07924       13.67349
O          3.83355       -1.13081       12.29967
C          1.54703        0.66383        9.23210
H          0.84244        1.27031        9.81477
O          2.10858        1.48862        8.20480
C          0.68951       -0.39970        8.55542
H         -0.00865        0.14166        7.91227
O         -0.06510       -1.04845        9.56964
C          1.35821       -1.48072        7.68953
H          0.54941       -1.89547        7.08438
O          1.83049       -2.53689        8.51659
C          2.48456       -1.03570        6.75173
O          3.74245       -1.10635        7.39977
H          0.44993        4.73296        7.44536
H          3.25019        3.28431        6.96736
H          2.44787        2.73106       10.84695
H          3.97490        3.34854       10.21518
H          4.82669        1.64742        8.63465
H          1.03320        0.04354       11.55247
H          0.95653       -0.48395       13.74802
H          2.47875       -0.92141       14.55425
H          1.59579       -2.13394       13.63808
H          0.41543       -1.87537        9.72972
H          2.79583       -2.43077        8.51884
H          2.28119       -0.04650        6.34522
H          2.53730       -1.74813        5.93077
H          3.92918       -0.29866        7.90915
