30
-819.15280926
C         -0.22826       -4.13003       -3.32687
C         -0.12469       -4.14363       -1.80784
C         -0.83551       -2.98853       -1.11006
C         -0.06507       -1.65923       -1.21338
C          1.44490       -1.85748       -1.37315
C          1.87670       -3.19484       -0.79798
O          1.25311       -4.28231       -1.40686
N          2.21898       -0.79104       -0.80099
C          2.79548        0.26456       -1.46083
O          3.33440        1.16837       -0.83907
C          2.74074        0.23337       -2.96863
O         -0.48064       -0.88113       -2.34429
O         -1.13232       -3.29950        0.23922
O          0.33906       -3.00681       -3.97172
H          0.30983       -4.99769       -3.70276
H         -1.28579       -4.25057       -3.58766
H         -0.62130       -5.05622       -1.47103
H         -1.80203       -2.85436       -1.59954
H         -0.26149       -1.10905       -0.29216
H          1.65011       -1.92139       -2.43788
H          2.94449       -3.33922       -0.95704
H          2.24520       -0.71964        0.20605
H          3.25320        1.11647       -3.33307
H          3.22980       -0.65641       -3.36301
H          1.71007        0.23233       -3.31756
H         -1.33434       -0.48695       -2.13787
H         -0.27808       -3.35302        0.69242
H         -0.15452       -2.21962       -3.70177
O          1.61682       -3.14089        0.60724
H          2.05276       -3.89992        1.00967
