45
-1296.707655
C         -0.53717       -0.61042        6.45397
C         -2.01885       -0.31598        6.41156
C         -2.89328       -1.55687        6.35533
C         -4.33659       -1.10795        6.31090
C         -4.57493       -0.18742        5.13091
C         -3.57224        0.95757        5.13896
O         -2.26030        0.49409        5.25796
O         -3.95552        1.79819        6.22914
C         -3.20025        3.00496        6.31734
C         -3.28287        3.45216        7.77470
O         -2.58219        4.68936        7.96578
C         -3.06604        5.75764        7.18996
C         -3.03991        5.40812        5.71370
C         -3.77969        4.10494        5.44892
O         -3.65441        3.76317        4.08028
O         -3.56973        6.45389        4.91713
O         -4.40195        6.08812        7.49712
C         -2.63707        2.49363        8.75012
O         -1.25017        2.32732        8.49302
O         -5.91627        0.27712        5.11711
O         -5.14882       -2.27017        6.23077
O         -2.64399       -2.33671        7.51229
O          0.23244        0.56041        6.65142
H         -0.22854       -1.03561        5.49954
H         -0.36185       -1.34927        7.23888
H         -2.28396        0.23921        7.31485
H         -2.66468       -2.12226        5.44433
H         -4.54837       -0.56348        7.23869
H         -4.43067       -0.75456        4.21147
H         -3.60361        1.52417        4.21280
H         -2.16068        2.80854        6.04161
H         -4.33626        3.57382        8.04459
H         -2.39942        6.59182        7.40580
H         -2.00210        5.28089        5.40706
H         -4.83599        4.22968        5.71607
H         -3.83373        4.57349        3.58729
H         -4.38419        6.73270        5.35371
H         -4.41773        6.50987        8.36171
H         -3.10172        1.51522        8.66861
H         -2.79568        2.87083        9.76256
H         -0.86663        3.21145        8.48118
H         -5.93328        1.02645        5.72520
H         -6.04928       -1.96342        6.07474
H         -3.36178       -2.97857        7.56010
H         -0.18888        1.06387        7.36060
