45
-1296.688397
C         -6.57577       -3.75811        4.04410
C         -6.13958       -4.88021        3.12308
C         -5.15763       -5.83508        3.81477
C         -3.80034       -5.76265        3.15064
C         -3.46473       -4.29530        2.96823
C         -4.37536       -3.74867        1.86431
O         -5.64310       -4.38338        1.87693
O         -3.79057       -4.06656        0.63653
C         -3.84429       -3.08330       -0.38916
C         -4.67977       -3.54149       -1.57921
O         -4.65496       -2.49638       -2.56513
C         -3.37861       -2.19035       -3.05913
C         -2.42710       -1.78087       -1.94370
C         -2.42825       -2.83264       -0.85093
O         -1.66838       -2.40576        0.27017
O         -1.11445       -1.54592       -2.42220
O         -2.76157       -3.28394       -3.70529
C         -6.14943       -3.79334       -1.26511
O         -6.37404       -5.07933       -0.73754
O         -2.09523       -4.10548        2.69546
O         -2.86836       -6.40733        3.99879
O         -5.71174       -7.13889        3.78104
O         -7.49747       -2.94629        3.33958
H         -5.71082       -3.17606        4.37748
H         -7.02954       -4.22072        4.92548
H         -7.02051       -5.45314        2.84053
H         -5.01168       -5.51735        4.85464
H         -3.84472       -6.25513        2.17452
H         -3.68124       -3.77521        3.90514
H         -4.50277       -2.66455        1.94528
H         -4.26997       -2.15492        0.00601
H         -4.25782       -4.46195       -1.98856
H         -3.53360       -1.36665       -3.75561
H         -2.77674       -0.84000       -1.51947
H         -2.02440       -3.77014       -1.24720
H         -0.82398       -2.09022       -0.07416
H         -0.92753       -2.26486       -3.03871
H         -3.26268       -3.48172       -4.50269
H         -6.69141       -3.72634       -2.20693
H         -6.52974       -3.00978       -0.60185
H         -6.11665       -5.04460        0.19476
H         -2.00378       -3.80324        1.77821
H         -1.99916       -6.11007        3.70159
H         -5.04515       -7.72971        4.14917
H         -7.84138       -2.28879        3.94914
