45
-1296.688497
C          3.99615       -1.65630      -10.52360
C          4.26353       -2.30682       -9.18812
C          4.18161       -3.83546       -9.24550
C          3.70439       -4.42342       -7.90556
C          4.14925       -3.52151       -6.77100
C          3.48540       -2.15109       -6.94996
O          3.28340       -1.79032       -8.28288
O          4.33047       -1.22338       -6.27779
C          3.93991        0.14806       -6.48034
C          5.04638        0.82119       -7.28145
O          6.22927        0.96381       -6.50855
C          6.06468        1.68526       -5.28364
C          5.04725        0.98226       -4.38812
C          3.72457        0.78635       -5.11223
O          3.15697        2.08325       -5.24930
O          5.58631       -0.24886       -3.93011
O          7.29946        1.73631       -4.66706
C          4.63361        2.12967       -7.94433
O          3.43554        1.84764       -8.68145
O          5.56642       -3.45249       -6.85022
O          2.29337       -4.51841       -7.79489
O          5.42886       -4.37729       -9.64093
O          4.30774       -0.27772      -10.53281
H          2.94993       -1.83664      -10.79198
H          4.63238       -2.12895      -11.27002
H          5.26538       -2.02554       -8.85532
H          3.46625       -4.13494      -10.01482
H          4.18299       -5.39943       -7.79280
H          3.83823       -3.93177       -5.80857
H          2.49546       -2.14365       -6.49332
H          3.01417        0.17982       -7.05469
H          5.31339        0.13349       -8.08228
H          5.75744        2.71123       -5.48549
H          4.88024        1.60353       -3.50947
H          3.08725        0.13197       -4.51019
H          2.35497        2.00521       -5.77599
H          5.42466       -0.89665       -4.62776
H          7.41707        0.86724       -4.25961
H          5.44154        2.43367       -8.61038
H          4.44952        2.91328       -7.21275
H          3.27074        2.58860       -9.27128
H          5.81713       -2.58310       -6.51123
H          1.98453       -5.14499       -8.45502
H          6.03638       -4.18442       -8.91546
H          3.75618        0.17527       -9.88073
