45
-1296.692442
C         -4.04227        2.40799        4.05309
C         -4.42763        1.02304        3.58391
C         -3.24103        0.23290        3.05475
C         -3.69381       -0.90853        2.13199
C         -5.17691       -1.20905        2.29392
C         -5.98729        0.07917        2.05106
O         -5.35337        1.22851        2.51010
O         -7.24943       -0.00572        2.71261
C         -8.26064       -0.63989        1.95241
C         -9.27267        0.40853        1.50223
O        -10.36368       -0.21139        0.80260
C        -11.05907       -1.17082        1.55750
C        -10.12886       -2.26492        2.05870
C         -8.95577       -1.66596        2.81371
O         -8.01965       -2.68359        3.14510
O        -10.81445       -3.21340        2.85790
O        -11.66908       -0.62367        2.70577
C         -8.67608        1.40564        0.53427
O         -8.16143        0.77504       -0.62746
O         -5.35117       -1.74526        3.58170
O         -3.41066       -0.50125        0.79514
O         -2.53693       -0.22710        4.20054
O         -3.50675        3.19509        3.00227
H         -3.27182        2.32350        4.81564
H         -4.92238        2.88621        4.49049
H         -4.89300        0.46743        4.39877
H         -2.62271        0.90041        2.45161
H         -3.13180       -1.80433        2.40627
H         -5.48165       -1.93518        1.52847
H         -6.15213        0.21952        0.98113
H         -7.84263       -1.13858        1.07306
H         -9.64106        0.93788        2.38498
H        -11.80655       -1.58165        0.87933
H         -9.74249       -2.80835        1.19675
H         -9.31508       -1.17232        3.72226
H         -8.52089       -3.39748        3.55797
H        -11.36737       -2.70041        3.46031
H        -12.39429       -0.05863        2.42187
H         -7.84543        1.91766        1.01465
H         -9.43765        2.14507        0.27646
H         -8.89998        0.31209       -1.03585
H         -6.28160       -2.01000        3.64846
H         -3.63178       -1.23250        0.21062
H         -1.63559       -0.42264        3.93220
H         -4.13097        3.12071        2.27245
