40
-1161.24407534
O          6.62626        2.26267       -2.84472
C          6.73021        3.30047       -1.99062
O          6.82558        4.45027       -2.33870
C          6.63845        2.82035       -0.53726
O          5.25553        2.64428       -0.24872
C          7.35935        1.52478       -0.24368
C          7.03432        1.08333        1.18186
H          7.86884        0.51112        1.57418
O          5.91822        0.20081        1.21013
C          6.76264        2.27790        2.12518
H          5.68337        2.31821        2.24156
N          7.30076        2.05662        3.45638
C          8.63031        1.85844        3.67507
C          9.01958        1.54014        5.09744
O          9.45550        1.93475        2.77051
C          7.23384        3.65747        1.63401
H          8.26940        3.78647        1.93953
O          7.18779        3.85727        0.21367
C          6.38156        4.76222        2.23894
H          6.51051        4.73956        3.32745
O          5.02204        4.49843        1.88881
C          6.79697        6.13937        1.71463
H          6.52738        6.18526        0.65640
O          8.18326        6.37203        1.90475
C          6.09879        7.25934        2.46946
O          4.67139        7.17147        2.36381
H          6.61802        2.65104       -3.73183
H          4.97495        3.44964        0.22433
H          8.42858        1.70363       -0.35715
H          7.05686        0.73844       -0.93030
H          5.21201        0.66949        0.74771
H          6.66002        1.89301        4.21228
H          8.18814        1.60441        5.79496
H          9.80329        2.22845        5.40282
H          9.43248        0.53402        5.12357
H          4.53774        5.31784        2.08350
H          8.65213        5.92133        1.19570
H          6.46217        8.21943        2.10556
H          6.33520        7.18505        3.52931
H          4.41288        7.59182        1.53897
