45
-1296.694164
C         -2.80772        6.01012       -7.62679
C         -2.03842        4.75313       -7.27183
C         -2.62366        3.51829       -7.93666
C         -1.81939        2.31574       -7.50463
C         -1.87461        2.17643       -5.99926
C         -1.42622        3.46455       -5.32151
O         -2.09321        4.60387       -5.83417
O         -0.03301        3.55091       -5.47724
C          0.59567        4.35467       -4.47572
C          1.40085        5.45686       -5.14614
O          2.33002        5.94069       -4.16211
C          3.39250        5.03014       -3.96810
C          2.92639        3.56228       -3.95354
C          1.47096        3.53205       -3.51795
O          1.34998        4.00582       -2.18392
O          2.98986        2.94968       -5.22613
O          4.36201        5.12948       -4.98252
C          0.54975        6.60970       -5.66305
O         -0.60437        6.90000       -4.88440
O         -1.10289        1.07512       -5.55592
O         -2.37278        1.17891       -8.14743
O         -2.54865        3.70252       -9.33744
O         -2.07972        7.20704       -7.43361
H         -3.74612        6.00617       -7.06367
H         -3.04082        5.96561       -8.68720
H         -0.99964        4.85894       -7.59461
H         -3.66379        3.38713       -7.61386
H         -0.77986        2.46565       -7.81896
H         -2.90465        1.97309       -5.70689
H         -1.68564        3.44161       -4.26158
H         -0.17022        4.81449       -3.84872
H          1.95614        5.03632       -5.98530
H          3.81429        5.30260       -3.00159
H          3.53519        3.01918       -3.22746
H          1.11421        2.50341       -3.51812
H          1.45091        4.96412       -2.21945
H          3.79168        3.27765       -5.65100
H          4.70979        6.02666       -4.97140
H          0.26486        6.40145       -6.69470
H          1.16330        7.50774       -5.65963
H         -1.20714        6.14961       -5.00514
H         -0.18352        1.37288       -5.58984
H         -1.93734        0.40656       -7.76907
H         -2.68234        2.83141       -9.72889
H         -1.88362        7.32034       -6.49544
