30
-819.14667534
C          1.79065       -3.83517       -4.17728
C          0.69935       -3.82739       -3.11839
C         -0.07394       -2.50203       -3.04284
C          0.16812       -1.86770       -1.69116
C          1.68440       -1.86382       -1.49385
C          2.13083       -3.32618       -1.23243
O          1.22069       -4.22735       -1.85277
N          2.16823       -0.94384       -0.48594
C          1.61444       -0.79120        0.73771
O          0.63752       -1.44612        1.10753
C          2.27338        0.22409        1.63485
O         -0.39958       -0.56978       -1.70889
O         -1.44923       -2.77392       -3.23951
O          1.15691       -3.58373       -5.42154
H          2.54639       -3.07236       -3.96303
H          2.27658       -4.81276       -4.15625
H         -0.02525       -4.59573       -3.38027
H          0.28872       -1.81652       -3.81687
H         -0.31368       -2.48210       -0.93456
H          2.12600       -1.52068       -2.43110
H          3.14045       -3.49425       -1.61597
H          2.95284       -0.36167       -0.71716
H          2.78290       -0.31107        2.43383
H          2.98980        0.85599        1.11629
H          1.50146        0.84024        2.08711
H         -0.58188       -0.34121       -0.79115
H         -1.90862       -1.93948       -3.09233
H          1.81773       -3.65047       -6.11460
O          2.18669       -3.64001        0.11248
H          1.39504       -3.28018        0.53939
