40
-1161.24359526
O          3.02703        7.37333        6.61280
C          3.89364        7.42185        5.57733
O          3.65727        7.96340        4.52801
C          5.19652        6.69635        5.93783
O          4.91780        5.46199        6.53984
C          6.05962        6.47321        4.72166
C          7.46329        5.98348        5.09157
H          8.20319        6.64253        4.62218
O          7.60474        4.66484        4.60053
C          7.72457        6.03057        6.60223
H          7.30954        5.10658        7.00732
N          9.14542        6.04568        6.91199
C          9.91861        4.93145        6.88505
C         11.34934        5.11096        7.32043
O          9.47722        3.83701        6.53712
C          7.11718        7.25709        7.28642
H          7.75389        8.12063        7.06991
O          5.80754        7.59874        6.83852
C          7.07501        7.08855        8.80664
H          8.08579        6.84069        9.14964
O          6.14291        6.10387        9.22201
C          6.66823        8.38475        9.47959
H          5.68324        8.67987        9.10213
O          7.65011        9.34793        9.12629
C          6.61346        8.24495       10.98894
O          6.44910        9.53294       11.58671
H          2.23464        7.84854        6.32430
H          4.38634        5.65989        7.32303
H          6.10266        7.41782        4.18608
H          5.60066        5.73071        4.07318
H          8.26899        4.21099        5.14590
H          9.58006        6.92624        7.13428
H         11.60156        6.14264        7.55189
H         11.99998        4.74448        6.53074
H         11.51765        4.49431        8.20049
H          6.36186        5.27590        8.78249
H          7.56540       10.04842        9.78565
H          7.56860        7.86917       11.35297
H          5.82534        7.55585       11.28596
H          5.52111        9.77230       11.51509
