24
-686.52567435
C         -1.05345        0.13441        3.04942
C          0.13804       -0.50468        2.37352
C          1.30524        0.47616        2.14045
C          1.36244        0.84829        0.66019
C          1.56892       -0.40971       -0.18580
C          0.73348       -1.55845        0.38095
O         -0.35683       -1.04074        1.12790
O          0.25255       -2.31109       -0.68287
O          2.96036       -0.72553       -0.16108
O          0.19745        1.54328        0.25575
O          2.54173       -0.06466        2.58454
O         -2.10543       -0.78955        3.24906
H         -1.38241        1.00016        2.46663
H         -0.74968        0.48675        4.03326
H          0.50778       -1.33386        2.98335
H          1.12754        1.38307        2.71939
H          2.20548        1.51512        0.48976
H          1.22839       -0.19769       -1.20040
H          1.35322       -2.15875        1.06072
H         -0.20418       -3.07861       -0.32324
H          3.10760       -1.47985       -0.74074
H         -0.51961        0.89828        0.28113
H          3.00199       -0.43351        1.81926
H         -2.27585       -1.19390        2.39283
