24
-686.51945001
C          0.74417        1.29940       -2.76977
C          0.05277        1.34323       -1.41812
C          0.91927        1.95884       -0.30484
C          1.35404        0.89068        0.68045
C          1.73997       -0.35858       -0.09426
C          0.48470       -0.95172       -0.73614
O         -0.46353        0.04200       -1.08465
O         -0.10246       -1.76501        0.24481
O          2.39460       -1.29904        0.73545
O          2.44992        1.36808        1.42761
O          0.27843        3.05488        0.32439
O         -0.10182        0.74327       -3.75694
H          1.68451        0.74178       -2.70406
H          0.98467        2.31676       -3.07504
H         -0.84227        1.95398       -1.51832
H          1.82590        2.37875       -0.74392
H          0.50849        0.64498        1.33685
H          2.46143       -0.08256       -0.86277
H          0.73119       -1.54801       -1.61997
H         -0.89845       -2.15661       -0.12653
H          1.69677       -1.83972        1.12753
H          2.86928        0.58256        1.80080
H         -0.40811        2.70051        0.89799
H         -0.59849        0.04505       -3.31672
