30
-819.16576060
C          0.17304       -5.53582       -3.17053
C          0.34944       -4.37347       -2.21646
C         -0.21207       -3.07514       -2.76772
C          0.12678       -1.93450       -1.83589
C          1.63207       -1.86792       -1.63875
C          2.15565       -3.21667       -1.16009
O          1.76735       -4.25796       -2.01804
N          1.98330       -0.81312       -0.71588
C          2.98454        0.08523       -0.99592
O          3.51104        0.16538       -2.09417
C          3.37535        0.97779        0.15726
O         -0.37529       -0.75039       -2.43567
O         -1.61423       -3.24479       -2.87889
O          0.85600       -5.32554       -4.39257
H          0.51981       -6.44770       -2.67730
H         -0.88184       -5.64173       -3.40817
H         -0.14794       -4.60015       -1.26967
H          0.23840       -2.87684       -3.74485
H         -0.36598       -2.11430       -0.87427
H          2.10757       -1.62706       -2.58867
H          3.24608       -3.23006       -1.17567
H          1.74581       -0.96646        0.25145
H          3.43959        2.00052       -0.20286
H          2.68000        0.92595        0.99135
H          4.36578        0.68369        0.49936
H         -0.04923       -0.00647       -1.91749
H         -1.97209       -2.38253       -3.11704
H          1.77155       -5.14015       -4.16031
O          1.66839       -3.39674        0.15291
H          2.06860       -4.19820        0.50515
