45
-1296.688697
C          2.50305        0.77425       -7.40857
C          2.96005       -0.64559       -7.64282
C          1.95756       -1.49125       -8.44886
C          1.31656       -2.54774       -7.56312
C          2.39004       -3.39013       -6.86733
C          3.56624       -2.51016       -6.35501
O          3.20315       -1.16236       -6.32223
O          4.68389       -2.70786       -7.18088
C          5.92645       -2.93214       -6.54466
C          6.93823       -1.83548       -6.85630
O          8.17020       -2.17090       -6.19506
C          8.73556       -3.38882       -6.60310
C          7.78390       -4.55722       -6.38064
C          6.44928       -4.26106       -7.03463
O          5.48353       -5.25525       -6.70694
O          8.32321       -5.78128       -6.84726
O          9.05488       -3.41446       -7.97760
C          6.52903       -0.45239       -6.36089
O          6.00590        0.29206       -7.44270
O          2.80866       -4.37834       -7.78965
O          0.48058       -1.86728       -6.63944
O          2.56063       -2.09198       -9.58206
O          3.46119        1.48830       -6.62346
H          1.52705        0.77541       -6.91930
H          2.42669        1.29596       -8.35969
H          3.90111       -0.64079       -8.19051
H          1.16731       -0.84462       -8.83209
H          0.74246       -3.22117       -8.20376
H          1.93102       -3.85601       -5.98821
H          3.81330       -2.77371       -5.32615
H          5.79234       -2.97967       -5.45803
H          7.09267       -1.77046       -7.93519
H          9.63207       -3.50228       -5.99401
H          7.62825       -4.67520       -5.30858
H          6.57689       -4.20434       -8.12017
H          5.90741       -6.10906       -6.85848
H          8.71401       -5.58570       -7.70805
H          9.75905       -2.77746       -8.13449
H          7.42609        0.02416       -5.95885
H          5.79829       -0.54322       -5.55341
H          5.25338        0.81649       -7.13043
H          3.67957       -4.69918       -7.50384
H         -0.03932       -2.52544       -6.16969
H          3.00134       -2.89685       -9.27636
H          3.45566        1.05293       -5.76412
