45
-1296.69782377
C          7.04094        4.13969        4.20008
C          6.62894        5.59284        4.26408
C          5.31591        5.87650        3.54347
C          5.03363        7.36038        3.59894
C          6.19455        8.11174        2.98941
C          7.49153        7.72615        3.68300
O          7.68416        6.32735        3.62675
O          6.90015       11.04340        5.45028
C          8.28366       10.80873        5.62139
C          8.57552        9.58189        6.50235
O          9.76505        9.73199        7.27438
C         10.77266       10.45317        6.56680
C         10.35410       11.92243        6.41371
C          8.84473       12.02100        6.33459
O          8.50812       13.22653        5.67398
O         10.87388       12.63026        7.53118
O         11.97048       10.31738        7.23051
C          8.64820        8.30272        5.68678
O          7.41130        8.20747        4.98440
O          6.02956        9.51661        3.10165
O          3.88670        7.72011        2.84388
O          4.21642        5.22629        4.17095
O          7.10807        3.65914        2.86822
H          6.30450        3.52923        4.71824
H          7.99826        4.02574        4.71338
H          6.53621        5.89647        5.31095
H          5.40498        5.56834        2.49985
H          4.91627        7.66216        4.64419
H          6.27869        7.82270        1.93797
H          8.35380        8.15212        3.16406
H          8.76951       10.71055        4.64176
H          7.75273        9.50791        7.21371
H         10.89677       10.00693        5.57626
H         10.77732       12.31347        5.48428
H          8.45183       12.01760        7.35687
H          7.57369       13.13788        5.44690
H         10.58520       13.54453        7.45474
H         12.00786       11.04126        7.86973
H          8.79401        7.43781        6.33439
H          9.47928        8.34568        4.97681
H          6.57466       10.42370        4.77807
H          5.14129        9.70985        2.77744
H          3.15447        7.20077        3.19372
H          4.16612        4.33055        3.82543
H          7.75517        4.20736        2.41292
