24
-686.52522367
C         -1.53525        2.09946       -0.41616
C         -0.90748        0.83598        0.13328
C          0.19129        1.10004        1.17265
C          1.57497        0.86239        0.58949
C          1.69470       -0.53653       -0.03236
C          0.39572       -0.95855       -0.75701
O         -0.42896        0.15211       -1.03131
O         -0.26774       -1.90624        0.04161
O          2.11241       -1.49801        0.91386
O          1.93289        1.86496       -0.34057
O         -0.06331        0.21867        2.26188
O         -0.59582        2.86358       -1.16905
H         -1.87437        2.73147        0.40106
H         -2.39304        1.83827       -1.03725
H         -1.67451        0.23738        0.62966
H          0.12745        2.14183        1.50473
H          2.30335        0.88507        1.40498
H          2.48069       -0.45311       -0.78159
H          0.61719       -1.37321       -1.73900
H         -0.96147       -2.30877       -0.48816
H          1.30994       -1.92917        1.23001
H          1.13594        2.36015       -0.58402
H          0.68391        0.28053        2.86592
H         -0.39978        2.33450       -1.95086
