45
-1296.69431081
C          9.41715        7.22917       -5.19719
C          9.23965        7.77735       -3.80106
C         10.49242        8.44300       -3.26020
C         10.24342        8.86678       -1.83074
C          9.84050        7.66498       -0.99744
C          8.64404        6.98151       -1.64239
O          8.90019        6.64421       -2.98472
O          6.66871        8.15041        1.12308
C          5.34428        8.07191        0.61812
C          5.33104        8.23237       -0.89331
O          4.03061        7.87399       -1.36628
C          2.92847        8.25623       -0.56319
C          3.23434        9.42087        0.36173
C          4.45334        9.12893        1.23976
O          4.11335        8.63356        2.52944
O          3.52243       10.58028       -0.39395
O          1.90218        8.69128       -1.41611
C          6.29039        7.30499       -1.60971
O          7.57972        7.87982       -1.49927
O          9.56702        8.03256        0.34086
O         11.44195        9.45338       -1.34338
O         10.78893        9.55449       -4.08702
O          8.22846        6.61260       -5.66145
H         10.25470        6.52462       -5.19642
H          9.64716        8.04385       -5.87755
H          8.41561        8.49497       -3.79343
H         11.31592        7.71864       -3.27216
H          9.43016        9.59947       -1.82192
H         10.67322        6.96113       -0.97657
H          8.41292        6.03769       -1.14288
H          4.91641        7.08818        0.84473
H          5.56706        9.26406       -1.16587
H          2.59847        7.38955        0.01802
H          2.36050        9.57030        1.00395
H          5.02546       10.05754        1.30575
H          3.72629        9.35247        3.03784
H          2.90015       10.57653       -1.13278
H          1.85513        8.06671       -2.14756
H          5.98781        7.21692       -2.65513
H          6.27452        6.31028       -1.15330
H          6.59652        8.07239        2.08136
H          8.62797        8.27576        0.37808
H         11.30231        9.60913       -0.40232
H         11.43589       10.08095       -3.60377
H          7.98772        5.96961       -4.98707
